#	Name: ASD04881077
#	Creating user name:	WinNT
#	Creation time:	15. 06. 2019 20:53

#	Modifying user name:	WinNT
#	Modification time:	15. 06. 2019 20:53

#	Program:	/corina/corina34_cracker 3.40 0067  02.08.2006

@<TRIPOS>MOLECULE
ASD04881077
  72   77    0    0    0
SMALL
NO_CHARGES


@<TRIPOS>ATOM
   1 C1             0.1988     1.5416     1.7315 C.2     
   2 C2             1.3049     1.8999     1.0153 C.2     
   3 C3             1.8235     3.2620     0.8547 C.2     
   4 O4             1.2542     4.1966     1.3875 O.2     
   5 O5             1.8370     0.7810     0.4813 O.3     
   6 C6             1.0982    -0.2773     0.8395 C.2     
   7 C7             0.0752     0.1484     1.6130 C.2     
   8 N8             2.9304     3.4791     0.1172 N.am    
   9 C9             3.3688     4.7885    -0.1196 C.ar    
  10 C10            4.7352     5.0583    -0.2364 C.ar    
  11 C11            5.1715     6.3571    -0.4713 C.ar    
  12 C12            4.2597     7.3824    -0.5898 C.ar    
  13 C13            2.8918     7.1195    -0.4745 C.ar    
  14 C14            2.4501     5.8136    -0.2435 C.ar    
  15 C15            1.9152     8.2179    -0.6015 C.2     
  16 O16            0.8516     8.0246    -1.1583 O.2     
  17 N17            2.2018     9.4358    -0.1003 N.am    
  18 N18            5.6607     4.0248    -0.1168 N.3     
  19 C19            5.6694     3.4809     1.2485 C.3     
  20 C20            6.6389     2.2987     1.3176 C.3     
  21 N21            7.9820     2.7463     0.9236 N.3     
  22 C22            7.9734     3.2901    -0.4416 C.3     
  23 C23            7.0038     4.4724    -0.5108 C.3     
  24 C24            8.9104     1.7097     1.0436 C.ar    
  25 C25            9.2376     1.2100     2.2975 C.ar    
  26 C26           10.1557     0.1845     2.4125 C.ar    
  27 C27           10.7491    -0.3444     1.2812 C.ar    
  28 C28           10.4256     0.1509     0.0310 C.ar    
  29 C29            9.5043     1.1721    -0.0916 C.ar    
  30 C30            8.5920     1.7865     3.5312 C.3     
  31 C31            1.2111    10.5224    -0.1384 C.3     
  32 C32            0.8458    10.9209     1.2965 C.3     
  33 N33            2.0690    11.0403     2.0886 N.pl3   
  34 C34            3.2662    10.5117     1.7623 C.2     
  35 C35            3.5161     9.7162     0.5079 C.3     
  36 C36            2.2493    11.6835     3.2807 C.2     
  37 N37            3.5158    11.5128     3.6168 N.2     
  38 N38            4.1102    10.8140     2.7111 N.2     
  39 C39            1.2341    12.4203     4.0397 C.2     
  40 C40            1.5991    13.0768     5.3462 C.3     
  41 O41            0.1002    12.5016     3.6160 O.2     
  42 H42           -0.4521     2.2016     2.2856 H       
  43 H43            1.2884    -1.3019     0.5561 H       
  44 H44           -0.6930    -0.4675     2.0566 H       
  45 H45            3.4236     2.7287    -0.2497 H       
  46 H46            6.2280     6.5627    -0.5607 H       
  47 H47            4.6019     8.3905    -0.7716 H       
  48 H48            1.3935     5.6069    -0.1577 H       
  49 H49            5.9892     4.2549     1.9462 H       
  50 H50            4.6666     3.1448     1.5124 H       
  51 H51            6.6688     1.9120     2.3363 H       
  52 H52            6.3039     1.5135     0.6399 H       
  53 H53            8.9761     3.6263    -0.7056 H       
  54 H54            7.6535     2.5162    -1.1393 H       
  55 H55            6.9740     4.8591    -1.5295 H       
  56 H56            7.3389     5.2576     0.1669 H       
  57 H57           10.4106    -0.2045     3.3872 H       
  58 H58           11.4672    -1.1457     1.3740 H       
  59 H59           10.8912    -0.2642    -0.8507 H       
  60 H60            9.2488     1.5553    -1.0684 H       
  61 H61            7.7260     1.1833     3.8037 H       
  62 H62            9.3095     1.7836     4.3518 H       
  63 H63            8.2737     2.8094     3.3305 H       
  64 H64            1.6331    11.3820    -0.6590 H       
  65 H65            0.3170    10.1820    -0.6607 H       
  66 H66            0.3234    11.8775     1.2870 H       
  67 H67            0.2019    10.1578     1.7337 H       
  68 H68            4.0186     8.7810     0.7551 H       
  69 H69            4.1284    10.2975    -0.1815 H       
  70 H70            2.6525    12.8972     5.5612 H       
  71 H71            1.4204    14.1498     5.2761 H       
  72 H72            0.9884    12.6583     6.1462 H       
@<TRIPOS>BOND
   1    1    7 1
   2    1    2 2
   3    1   42 1
   4    2    3 1
   5    2    5 1
   6    3    4 2
   7    3    8 am
   8    5    6 1
   9    6    7 2
  10    6   43 1
  11    7   44 1
  12    8    9 1
  13    8   45 1
  14    9   10 ar
  15    9   14 ar
  16   10   11 ar
  17   10   18 1
  18   11   12 ar
  19   11   46 1
  20   12   13 ar
  21   12   47 1
  22   13   14 ar
  23   13   15 1
  24   14   48 1
  25   15   16 2
  26   15   17 am
  27   17   31 1
  28   17   35 1
  29   18   19 1
  30   18   23 1
  31   19   20 1
  32   19   49 1
  33   19   50 1
  34   20   21 1
  35   20   51 1
  36   20   52 1
  37   21   22 1
  38   21   24 1
  39   22   23 1
  40   22   53 1
  41   22   54 1
  42   23   55 1
  43   23   56 1
  44   24   25 ar
  45   24   29 ar
  46   25   26 ar
  47   25   30 1
  48   26   27 ar
  49   26   57 1
  50   27   28 ar
  51   27   58 1
  52   28   29 ar
  53   28   59 1
  54   29   60 1
  55   30   61 1
  56   30   62 1
  57   30   63 1
  58   31   32 1
  59   31   64 1
  60   31   65 1
  61   32   33 1
  62   32   66 1
  63   32   67 1
  64   33   36 1
  65   33   34 1
  66   34   35 1
  67   34   38 2
  68   35   68 1
  69   35   69 1
  70   36   37 2
  71   36   39 1
  72   37   38 1
  73   39   40 1
  74   39   41 2
  75   40   70 1
  76   40   71 1
  77   40   72 1

#	End of record

