#	Name: ASD00450003
#	Creating user name:	WinNT
#	Creation time:	15. 06. 2019 18:35

#	Modifying user name:	WinNT
#	Modification time:	15. 06. 2019 18:35

#	Program:	/corina/corina34_cracker 3.40 0067  02.08.2006

@<TRIPOS>MOLECULE
ASD00450003
  59   63    0    0    0
SMALL
NO_CHARGES


@<TRIPOS>ATOM
   1 C1             0.1131     1.4694    -0.0660 C.2     
   2 N2             0.1744     0.3751    -0.8703 N.am    
   3 C3             1.3520    -0.2566    -1.0849 C.2     
   4 C4             2.5439     0.2883    -0.4178 C.ar    
   5 C5             2.3838     1.4295     0.3993 C.ar    
   6 N6             1.1475     1.9724     0.5354 N.2     
   7 C7             3.8025    -0.2877    -0.5724 C.ar    
   8 C8             4.8884     0.2699     0.0815 C.ar    
   9 C9             4.7245     1.3969     0.8872 C.ar    
  10 C10            3.4963     1.9720     1.0467 C.ar    
  11 N11            6.1562    -0.3002    -0.0661 N.pl3   
  12 C12            7.2782     0.5195    -0.2105 C.ar    
  13 C13            7.1218     1.8889    -0.3730 C.ar    
  14 C14            8.2390     2.6995    -0.5162 C.ar    
  15 C15            9.5098     2.1384    -0.4964 C.ar    
  16 C16            9.6622     0.7745    -0.3345 C.ar    
  17 C17            8.5527    -0.0347    -0.1859 C.ar    
  18 C18            8.7237    -1.5216    -0.0095 C.3     
  19 N19            8.0858     4.0798    -0.6806 N.am    
  20 C20            8.9735     4.9274    -0.1237 C.2     
  21 C21            8.7791     6.3792    -0.2451 C.2     
  22 O22            9.9357     4.4907     0.4795 O.2     
  23 N23            7.7627     7.0002    -0.8817 N.2     
  24 C24            7.9142     8.2890    -0.7856 C.2     
  25 N25            9.0419     8.5628    -0.0783 N.pl3   
  26 C26            9.6035     7.3666     0.2788 C.2     
  27 C27           10.8417     7.1663     1.0576 C.ar    
  28 C28           11.0747     7.9204     2.2100 C.ar    
  29 C29           12.2328     7.7290     2.9333 C.ar    
  30 C30           13.1651     6.7907     2.5186 C.ar    
  31 C31           12.9393     6.0398     1.3756 C.ar    
  32 C32           11.7817     6.2179     0.6481 C.ar    
  33 C33           -1.0449    -0.1250    -1.5100 C.3     
  34 O34            1.4217    -1.2379    -1.8019 O.2     
  35 F35           14.2983     6.6077     3.2310 F       
  36 C36            6.9822     9.3196    -1.3689 C.3     
  37 F37            5.7744     8.7089    -1.7230 F       
  38 F38            6.7390    10.3185    -0.4201 F       
  39 F39            7.5680     9.8882    -2.5050 F       
  40 H40           -0.8449     1.9475     0.0763 H       
  41 H41            3.9303    -1.1604    -1.1957 H       
  42 H42            5.5806     1.8205     1.3912 H       
  43 H43            3.3851     2.8445     1.6734 H       
  44 H44            6.2569    -1.2649    -0.0683 H       
  45 H45            6.1328     2.3227    -0.3884 H       
  46 H46           10.3796     2.7688    -0.6082 H       
  47 H47           10.6512     0.3409    -0.3195 H       
  48 H48            8.8094    -1.7540     1.0519 H       
  49 H49            7.8593    -2.0386    -0.4261 H       
  50 H50            9.6261    -1.8474    -0.5269 H       
  51 H51            7.3408     4.4271    -1.1955 H       
  52 H52            9.3843     9.4445     0.1371 H       
  53 H53           10.3494     8.6522     2.5336 H       
  54 H54           12.4141     8.3115     3.8245 H       
  55 H55           13.6692     5.3104     1.0570 H       
  56 H56           11.6066     5.6320    -0.2422 H       
  57 H57           -1.8888     0.5032    -1.2247 H       
  58 H58           -0.9234    -0.1004    -2.5929 H       
  59 H59           -1.2298    -1.1499    -1.1883 H       
@<TRIPOS>BOND
   1    1    2 1
   2    1    6 2
   3    1   40 1
   4    2    3 am
   5    2   33 1
   6    3    4 1
   7    3   34 2
   8    4    5 ar
   9    4    7 ar
  10    5    6 1
  11    5   10 ar
  12    7    8 ar
  13    7   41 1
  14    8    9 ar
  15    8   11 1
  16    9   10 ar
  17    9   42 1
  18   10   43 1
  19   11   12 1
  20   11   44 1
  21   12   13 ar
  22   12   17 ar
  23   13   14 ar
  24   13   45 1
  25   14   15 ar
  26   14   19 1
  27   15   16 ar
  28   15   46 1
  29   16   17 ar
  30   16   47 1
  31   17   18 1
  32   18   48 1
  33   18   49 1
  34   18   50 1
  35   19   20 am
  36   19   51 1
  37   20   21 1
  38   20   22 2
  39   21   23 1
  40   21   26 2
  41   23   24 2
  42   24   25 1
  43   24   36 1
  44   25   26 1
  45   25   52 1
  46   26   27 1
  47   27   28 ar
  48   27   32 ar
  49   28   29 ar
  50   28   53 1
  51   29   30 ar
  52   29   54 1
  53   30   31 ar
  54   30   35 1
  55   31   32 ar
  56   31   55 1
  57   32   56 1
  58   33   57 1
  59   33   58 1
  60   33   59 1
  61   36   37 1
  62   36   38 1
  63   36   39 1

#	End of record

