#	Name: ASD01913048
#	Creating user name:	WinNT
#	Creation time:	15. 06. 2019 20:00

#	Modifying user name:	WinNT
#	Modification time:	15. 06. 2019 20:00

#	Program:	/corina/corina34_cracker 3.40 0067  02.08.2006

@<TRIPOS>MOLECULE
ASD01913048
  43   46    0    0    0
SMALL
NO_CHARGES


@<TRIPOS>ATOM
   1 N1            -0.0062     2.1923    -1.6852 N.ar    
   2 C2            -0.0252     1.0036    -1.1142 C.ar    
   3 C3             1.1490     0.3600    -0.7786 C.ar    
   4 C4             2.3674     0.9864    -1.0523 C.ar    
   5 C5             2.3411     2.2450    -1.6579 C.ar    
   6 C6             1.1220     2.8175    -1.9604 C.ar    
   7 C7             3.6553     0.3322    -0.7085 C.2     
   8 N8             4.8924     0.8341    -0.9220 N.2     
   9 C9             5.7226    -0.0713    -0.4676 C.2     
  10 O10            4.9842    -1.0818     0.0018 O.3     
  11 N11            3.8050    -0.8342    -0.1376 N.2     
  12 C12            7.2274     0.0105    -0.4734 C.3     
  13 C13            7.7488    -0.0687     0.9632 C.3     
  14 C14            9.2748     0.0473     0.9609 C.3     
  15 C15            9.8704    -1.1186     0.1654 C.3     
  16 N16            9.2646    -1.1361    -1.1730 N.am    
  17 C17            7.7997    -1.1557    -1.2852 C.3     
  18 C18           10.0379    -1.1343    -2.2769 C.2     
  19 C19           11.5060    -1.0300    -2.1501 C.ar    
  20 O20            9.5272    -1.2185    -3.3769 O.2     
  21 C21           12.1964    -1.8787    -1.2823 C.ar    
  22 C22           13.5663    -1.7775    -1.1681 C.ar    
  23 C23           14.2588    -0.8351    -1.9130 C.ar    
  24 C24           13.5781     0.0104    -2.7758 C.ar    
  25 C25           12.2089    -0.0862    -2.9019 C.ar    
  26 F26           15.6015    -0.7400    -1.7974 F       
  27 H27           -0.9720     0.5274    -0.9062 H       
  28 H28            1.1261    -0.6132    -0.3109 H       
  29 H29            3.2612     2.7627    -1.8858 H       
  30 H30            1.0916     3.7900    -2.4290 H       
  31 H31            7.5387     0.9540    -0.9219 H       
  32 H32            7.3236     0.7460     1.5493 H       
  33 H33            7.4578    -1.0227     1.4030 H       
  34 H34            9.5673     0.9901     0.4988 H       
  35 H35            9.6437     0.0142     1.9861 H       
  36 H36           10.9488    -0.9873     0.0767 H       
  37 H37            9.6553    -2.0572     0.6762 H       
  38 H38            7.4158    -2.0973    -0.8927 H       
  39 H39            7.5119    -1.0490    -2.3311 H       
  40 H40           11.6579    -2.6129    -0.7013 H       
  41 H41           14.1012    -2.4331    -0.4970 H       
  42 H42           14.1223     0.7430    -3.3534 H       
  43 H43           11.6798     0.5726    -3.5744 H       
@<TRIPOS>BOND
   1    1    2 ar
   2    1    6 ar
   3    2    3 ar
   4    2   27 1
   5    3    4 ar
   6    3   28 1
   7    4    5 ar
   8    4    7 1
   9    5    6 ar
  10    5   29 1
  11    6   30 1
  12    7    8 1
  13    7   11 2
  14    8    9 2
  15    9   10 1
  16    9   12 1
  17   10   11 1
  18   12   13 1
  19   12   17 1
  20   12   31 1
  21   13   14 1
  22   13   32 1
  23   13   33 1
  24   14   15 1
  25   14   34 1
  26   14   35 1
  27   15   16 1
  28   15   36 1
  29   15   37 1
  30   16   17 1
  31   16   18 am
  32   17   38 1
  33   17   39 1
  34   18   19 1
  35   18   20 2
  36   19   21 ar
  37   19   25 ar
  38   21   22 ar
  39   21   40 1
  40   22   23 ar
  41   22   41 1
  42   23   24 ar
  43   23   26 1
  44   24   25 ar
  45   24   42 1
  46   25   43 1

#	End of record

