#	Name: ASD01903126
#	Creating user name:	WinNT
#	Creation time:	15. 06. 2019 19:54

#	Modifying user name:	WinNT
#	Modification time:	15. 06. 2019 19:54

#	Program:	/corina/corina34_cracker 3.40 0067  02.08.2006

@<TRIPOS>MOLECULE
ASD01903126
  34   36    0    0    0
SMALL
NO_CHARGES


@<TRIPOS>ATOM
   1 N1            -0.0426     1.3988    -0.0020 N.am    
   2 C2            -0.0172    -0.0043    -0.0067 C.ar    
   3 C3            -0.2418    -0.6992    -1.1886 C.ar    
   4 C4            -0.2162    -2.0804    -1.1931 C.ar    
   5 C5             0.0340    -2.7737    -0.0160 C.ar    
   6 C6             0.2585    -2.0780     1.1654 C.ar    
   7 C7             0.2382    -0.6979     1.1686 C.ar    
   8 C8             1.0478     2.1440    -0.2214 C.2     
   9 C9             0.6735     3.6082    -0.1466 C.3     
  10 C10           -0.8383     3.5797     0.1575 C.3     
  11 C11           -1.1604     2.1024     0.2168 C.2     
  12 O12            2.1590     1.7138    -0.4444 O.2     
  13 O13           -2.2556     1.6307     0.4350 O.2     
  14 Cl14          -0.5551     0.1681    -2.6595 Cl      
  15 N15            0.0595    -4.1725    -0.0199 N.am    
  16 C16            0.5514    -4.8346    -1.0858 C.2     
  17 O17            0.8940    -4.2210    -2.0769 O.2     
  18 C18            0.6745    -6.3131    -1.0489 C.ar    
  19 N19            0.3025    -6.9962     0.0311 N.ar    
  20 C20            0.4096    -8.3071     0.0674 C.ar    
  21 N21            0.8846    -8.9964    -0.9517 N.ar    
  22 C22            1.2756    -8.3919    -2.0606 C.ar    
  23 C23            1.1768    -7.0108    -2.1483 C.ar    
  24 H24           -0.3911    -2.6209    -2.1116 H       
  25 H25            0.4531    -2.6172     2.0808 H       
  26 H26            0.4128    -0.1575     2.0872 H       
  27 H27            1.2174     4.1025     0.6583 H       
  28 H28            0.8639     4.1020    -1.0994 H       
  29 H29           -1.0464     4.0599     1.1136 H       
  30 H30           -1.3999     4.0594    -0.6441 H       
  31 H31           -0.2768    -4.6659     0.7446 H       
  32 H32            0.0999    -8.8340     0.9579 H       
  33 H33            1.6634    -8.9662    -2.8890 H       
  34 H34            1.4877    -6.4886    -3.0410 H       
@<TRIPOS>BOND
   1    1    2 1
   2    1    8 am
   3    1   11 am
   4    2    3 ar
   5    2    7 ar
   6    3    4 ar
   7    3   14 1
   8    4    5 ar
   9    4   24 1
  10    5    6 ar
  11    5   15 1
  12    6    7 ar
  13    6   25 1
  14    7   26 1
  15    8    9 1
  16    8   12 2
  17    9   10 1
  18    9   27 1
  19    9   28 1
  20   10   11 1
  21   10   29 1
  22   10   30 1
  23   11   13 2
  24   15   16 am
  25   15   31 1
  26   16   17 2
  27   16   18 1
  28   18   19 ar
  29   18   23 ar
  30   19   20 ar
  31   20   21 ar
  32   20   32 1
  33   21   22 ar
  34   22   23 ar
  35   22   33 1
  36   23   34 1

#	End of record

