#	Name: ASD03092132
#	Creating user name:	WinNT
#	Creation time:	15. 06. 2019 20:32

#	Modifying user name:	WinNT
#	Modification time:	15. 06. 2019 20:32

#	Program:	/corina/corina34_cracker 3.40 0067  02.08.2006

@<TRIPOS>MOLECULE
ASD03092132
  49   51    0    0    0
SMALL
NO_CHARGES


@<TRIPOS>ATOM
   1 N1             0.2785     0.9004    -0.3970 N.pl3   
   2 C2             0.0767    -0.3558     0.0931 C.2     
   3 C3            -1.2644    -0.5007     0.3078 C.2     
   4 C4            -1.8890     0.6973    -0.0615 C.2     
   5 N5            -0.9673     1.5355    -0.4765 N.2     
   6 N6            -3.2628     0.9590     0.0064 N.pl3   
   7 C7            -3.7457     2.2392    -0.2819 C.ar    
   8 C8            -5.0263     2.4001    -0.7941 C.ar    
   9 C9            -5.5018     3.6676    -1.0779 C.ar    
  10 C10           -4.6999     4.7759    -0.8510 C.ar    
  11 C11           -2.9470     3.3521    -0.0508 C.ar    
  12 C12            1.1188    -1.3747     0.3459 C.ar    
  13 C13            1.5697     1.4842    -0.7686 C.3     
  14 C14            2.3544    -1.3175    -0.3089 C.ar    
  15 C15            3.2974    -2.2883    -0.0434 C.ar    
  16 N16            3.0469    -3.2599     0.8136 N.ar    
  17 C17            1.8958    -3.3509     1.4521 C.ar    
  18 C18            0.8987    -2.4193     1.2508 C.ar    
  19 C19            1.6697    -4.4844     2.4191 C.3     
  20 C20           -3.4231     4.6158    -0.3408 C.ar    
  21 F21           -6.7473     3.8257    -1.5767 F       
  22 C22            4.6318    -2.2390    -0.7419 C.3     
  23 C23            1.8070     1.2816    -2.2430 C.2     
  24 N24            2.9392     1.7399    -2.8125 N.am    
  25 O25            0.9791     0.7061    -2.9169 O.2     
  26 C26            3.1699     1.5428    -4.2458 C.3     
  27 C27            3.9393     2.4350    -1.9984 C.3     
  28 F28           -5.1653     6.0135    -1.1286 F       
  29 H29           -1.7555    -1.3818     0.6936 H       
  30 H30           -3.8795     0.2522     0.2534 H       
  31 H31           -5.6503     1.5365    -0.9710 H       
  32 H32           -1.9524     3.2289     0.3517 H       
  33 H33            1.5639     2.5510    -0.5448 H       
  34 H34            2.3645     0.9985    -0.2025 H       
  35 H35            2.5661    -0.5254    -1.0118 H       
  36 H36           -0.0410    -2.5000     1.7769 H       
  37 H37            1.9929    -4.1821     3.4152 H       
  38 H38            0.6095    -4.7364     2.4420 H       
  39 H39            2.2432    -5.3544     2.0994 H       
  40 H40           -2.8000     5.4804    -0.1655 H       
  41 H41            5.3315    -1.6514    -0.1476 H       
  42 H42            5.0173    -3.2516    -0.8609 H       
  43 H43            4.5118    -1.7784    -1.7225 H       
  44 H44            2.7650     2.3903    -4.7988 H       
  45 H45            4.2407     1.4643    -4.4340 H       
  46 H46            2.6758     0.6273    -4.5708 H       
  47 H47            4.6495     1.7111    -1.5989 H       
  48 H48            4.4688     3.1612    -2.6151 H       
  49 H49            3.4437     2.9500    -1.1755 H       
@<TRIPOS>BOND
   1    1    2 1
   2    1   13 1
   3    1    5 1
   4    2    3 2
   5    2   12 1
   6    3    4 1
   7    3   29 1
   8    4    5 2
   9    4    6 1
  10    6    7 1
  11    6   30 1
  12    7    8 ar
  13    7   11 ar
  14    8    9 ar
  15    8   31 1
  16    9   10 ar
  17    9   21 1
  18   10   20 ar
  19   10   28 1
  20   11   20 ar
  21   11   32 1
  22   12   14 ar
  23   12   18 ar
  24   13   23 1
  25   13   33 1
  26   13   34 1
  27   14   15 ar
  28   14   35 1
  29   15   16 ar
  30   15   22 1
  31   16   17 ar
  32   17   18 ar
  33   17   19 1
  34   18   36 1
  35   19   37 1
  36   19   38 1
  37   19   39 1
  38   20   40 1
  39   22   41 1
  40   22   42 1
  41   22   43 1
  42   23   24 am
  43   23   25 2
  44   24   26 1
  45   24   27 1
  46   26   44 1
  47   26   45 1
  48   26   46 1
  49   27   47 1
  50   27   48 1
  51   27   49 1

#	End of record

