#	Name: ASD03331658
#	Creating user name:	WinNT
#	Creation time:	15. 06. 2019 20:39

#	Modifying user name:	WinNT
#	Modification time:	15. 06. 2019 20:39

#	Program:	/corina/corina34_cracker 3.40 0067  02.08.2006

@<TRIPOS>MOLECULE
ASD03331658
  44   46    0    0    0
SMALL
NO_CHARGES


@<TRIPOS>ATOM
   1 C1             2.0441     0.2572    -0.4190 C.ar    
   2 C2             1.0417    -0.4418     0.1928 C.ar    
   3 C3             0.2425     0.1651     1.1516 C.ar    
   4 C4             0.4443     1.4819     1.5036 C.ar    
   5 C5             2.2665     1.5922    -0.0773 C.ar    
   6 C6             3.2226     2.6106    -0.5186 C.2     
   7 C7             1.4588     2.2123     0.8937 C.ar    
   8 N8             1.9020     3.5095     1.0225 N.pl3   
   9 C9             2.9531     3.7284     0.1741 C.2     
  10 S10            3.8233     5.2521     0.0140 S.o2    
  11 O11            3.1835     6.1732     0.8866 O.2     
  12 O12            5.2060     4.9351     0.0967 O.2     
  13 N13            3.5619     5.8065    -1.5244 N.am    
  14 C14            2.2096     6.1760    -1.9500 C.3     
  15 C15            2.3287     7.1430    -5.5967 C.ar    
  16 C16            2.2582     6.3861    -4.4432 C.ar    
  17 C17            2.2871     7.0041    -3.2067 C.ar    
  18 C18            2.3866     8.3805    -3.1212 C.ar    
  19 C19            2.4569     9.1419    -4.2717 C.ar    
  20 C20            2.4281     8.5243    -5.5137 C.ar    
  21 C21            4.3037     2.4364    -1.5539 C.3     
  22 O22            2.4980     9.2710    -6.6470 O.3     
  23 C23            2.5989    10.6873    -6.4855 C.3     
  24 C24            0.8019    -1.8829    -0.1769 C.3     
  25 H25            2.6649    -0.2229    -1.1610 H       
  26 H26           -0.5457    -0.4004     1.6263 H       
  27 H27           -0.1833     1.9454     2.2503 H       
  28 H28            1.5253     4.1699     1.6249 H       
  29 H29            4.3041     5.8867    -2.1437 H       
  30 H30            1.6307     5.2732    -2.1448 H       
  31 H31            1.7263     6.7547    -1.1628 H       
  32 H32            2.3106     6.6596    -6.5623 H       
  33 H33            2.1805     5.3108    -4.5074 H       
  34 H34            2.4090     8.8608    -2.1541 H       
  35 H35            2.5342    10.2170    -4.2045 H       
  36 H36            3.8881     2.6118    -2.5462 H       
  37 H37            5.1061     3.1495    -1.3649 H       
  38 H38            4.6988     1.4220    -1.4996 H       
  39 H39            1.7258    11.0546    -5.9462 H       
  40 H40            3.5009    10.9254    -5.9218 H       
  41 H41            2.6469    11.1622    -7.4654 H       
  42 H42            1.3992    -2.5276     0.4677 H       
  43 H43           -0.2544    -2.1198    -0.0494 H       
  44 H44            1.0874    -2.0436    -1.2165 H       
@<TRIPOS>BOND
   1    1    2 ar
   2    1    5 ar
   3    1   25 1
   4    2    3 ar
   5    2   24 1
   6    3    4 ar
   7    3   26 1
   8    4    7 ar
   9    4   27 1
  10    5    7 ar
  11    5    6 1
  12    6    9 2
  13    6   21 1
  14    7    8 1
  15    8    9 1
  16    8   28 1
  17    9   10 1
  18   10   11 2
  19   10   12 2
  20   10   13 am
  21   13   14 1
  22   13   29 1
  23   14   17 1
  24   14   30 1
  25   14   31 1
  26   15   16 ar
  27   15   20 ar
  28   15   32 1
  29   16   17 ar
  30   16   33 1
  31   17   18 ar
  32   18   19 ar
  33   18   34 1
  34   19   20 ar
  35   19   35 1
  36   20   22 1
  37   21   36 1
  38   21   37 1
  39   21   38 1
  40   22   23 1
  41   23   39 1
  42   23   40 1
  43   23   41 1
  44   24   42 1
  45   24   43 1
  46   24   44 1

#	End of record

