#	Name: ASD09116166
#	Creating user name:	WinNT
#	Creation time:	15. 06. 2019 21:20

#	Modifying user name:	WinNT
#	Modification time:	15. 06. 2019 21:20

#	Program:	/corina/corina34_cracker 3.40 0067  02.08.2006

@<TRIPOS>MOLECULE
ASD09116166
  80   87    0    0    0
SMALL
NO_CHARGES


@<TRIPOS>ATOM
   1 N1            -0.1162     1.7103     0.5073 N.2     
   2 C2            -0.1330     0.2610     0.7732 C.3     
   3 C3             1.1400     2.0623     0.4619 C.2     
   4 N4             1.9808     1.0274     0.6649 N.2     
   5 C5             1.3384    -0.0944     0.8611 C.2     
   6 N6             1.5629     3.3557     0.2308 N.pl3   
   7 C7             2.9257     3.6713     0.3069 C.ar    
   8 C8             3.4524     4.6713    -0.4989 C.ar    
   9 C9             3.7483     2.9872     1.1927 C.ar    
  10 C10            5.0927     3.2988     1.2675 C.ar    
  11 C11            5.6207     4.2971     0.4556 C.ar    
  12 C12            4.7964     4.9830    -0.4250 C.ar    
  13 N13            1.8767    -1.3216     1.0943 N.pl3   
  14 C14           -0.8294    -0.0322     2.0771 C.ar    
  15 C15           -1.4539     0.9929     2.7574 C.ar    
  16 N16           -0.8360    -1.2672     2.5461 N.ar    
  17 C17           -1.4291    -1.5743     3.6781 C.ar    
  18 C18           -2.0739    -0.6010     4.4254 C.ar    
  19 C19           -2.0980     0.7104     3.9686 C.ar    
  20 C20           -1.5820    -2.8991     4.4306 C.3     
  21 C21           -3.0969    -3.2502     4.2875 C.3     
  22 C22           -3.8150    -2.1619     5.1211 C.3     
  23 C23           -2.6509    -1.2763     5.6688 C.3     
  24 C24           -1.5532    -2.3765     5.9139 C.3     
  25 C25           -2.7785     1.7784     4.7416 C.ar    
  26 C26           -2.1151     2.9721     5.0186 C.ar    
  27 N27            6.9833     4.6140     0.5310 N.3     
  28 C28            7.6446     4.4053    -0.7634 C.3     
  29 C29            9.1519     4.6200    -0.6083 C.3     
  30 C30            9.4107     6.0429    -0.1054 C.3     
  31 C31            8.6716     6.2499     1.2196 C.3     
  32 C32            7.1783     5.9879     1.0114 C.3     
  33 N33           10.8522     6.2359     0.1012 N.3     
  34 C34           -2.7531     3.9624     5.7377 C.ar    
  35 C35           -4.0487     3.7716     6.1832 C.ar    
  36 C36           -4.7118     2.5885     5.9116 C.ar    
  37 C37           -4.0855     1.5937     5.1884 C.ar    
  38 F38            5.8935     2.6343     2.1291 F       
  39 C39           11.5909     6.0989    -1.1674 C.3     
  40 C40           12.3821     7.4067    -1.3794 C.3     
  41 C41           12.4954     7.9833     0.0564 C.3     
  42 C42           11.1321     7.5730     0.6668 C.3     
  43 H43           -0.6123    -0.2747    -0.0461 H       
  44 H44            0.9164     4.0462     0.0158 H       
  45 H45            2.8113     5.2058    -1.1843 H       
  46 H46            3.3375     2.2124     1.8230 H       
  47 H47            5.2062     5.7582    -1.0555 H       
  48 H48            2.8400    -1.4302     1.1283 H       
  49 H49            1.2972    -2.0882     1.2266 H       
  50 H50           -1.4459     1.9979     2.3622 H       
  51 H51           -0.8779    -3.6878     4.1656 H       
  52 H52           -3.4045    -3.1965     3.2432 H       
  53 H53           -3.2998    -4.2402     4.6961 H       
  54 H54           -4.4789    -1.5722     4.4889 H       
  55 H55           -4.3703    -2.6142     5.9428 H       
  56 H56           -2.8962    -0.6203     6.5040 H       
  57 H57           -1.8775    -3.1344     6.6271 H       
  58 H58           -0.5884    -1.9471     6.1838 H       
  59 H59           -1.1034     3.1220     4.6715 H       
  60 H60            7.4561     3.3884    -1.1077 H       
  61 H61            7.2498     5.1141    -1.4914 H       
  62 H62            9.5497     3.9024     0.1093 H       
  63 H63            9.6405     4.4803    -1.5725 H       
  64 H64            9.0478     6.7608    -0.8409 H       
  65 H65            9.0619     5.5579     1.9659 H       
  66 H66            8.8172     7.2747     1.5612 H       
  67 H67            6.7857     6.6893     0.2752 H       
  68 H68            6.6512     6.1205     1.9562 H       
  69 H69           -2.2397     4.8878     5.9533 H       
  70 H70           -4.5441     4.5492     6.7456 H       
  71 H71           -5.7232     2.4447     6.2621 H       
  72 H72           -4.6041     0.6704     4.9768 H       
  73 H73           12.2784     5.2552    -1.1070 H       
  74 H74           10.8910     5.9514    -1.9899 H       
  75 H75           13.3700     7.1973    -1.7897 H       
  76 H76           11.8316     8.0895    -2.0266 H       
  77 H77           13.3207     7.5217     0.5985 H       
  78 H78           12.6027     9.0678     0.0343 H       
  79 H79           10.3562     8.2796     0.3721 H       
  80 H80           11.2038     7.5181     1.7530 H       
@<TRIPOS>BOND
   1    1    2 1
   2    1    3 2
   3    2   14 1
   4    2    5 1
   5    2   43 1
   6    3    4 1
   7    3    6 1
   8    4    5 2
   9    5   13 1
  10    6    7 1
  11    6   44 1
  12    7    8 ar
  13    7    9 ar
  14    8   12 ar
  15    8   45 1
  16    9   10 ar
  17    9   46 1
  18   10   11 ar
  19   10   38 1
  20   11   12 ar
  21   11   27 1
  22   12   47 1
  23   13   48 1
  24   13   49 1
  25   14   15 ar
  26   14   16 ar
  27   15   19 ar
  28   15   50 1
  29   16   17 ar
  30   17   18 ar
  31   17   20 1
  32   18   19 ar
  33   18   23 1
  34   19   25 1
  35   20   21 1
  36   20   24 1
  37   20   51 1
  38   21   22 1
  39   21   52 1
  40   21   53 1
  41   22   23 1
  42   22   54 1
  43   22   55 1
  44   23   24 1
  45   23   56 1
  46   24   57 1
  47   24   58 1
  48   25   26 ar
  49   25   37 ar
  50   26   34 ar
  51   26   59 1
  52   27   28 1
  53   27   32 1
  54   28   29 1
  55   28   60 1
  56   28   61 1
  57   29   30 1
  58   29   62 1
  59   29   63 1
  60   30   31 1
  61   30   33 1
  62   30   64 1
  63   31   32 1
  64   31   65 1
  65   31   66 1
  66   32   67 1
  67   32   68 1
  68   33   39 1
  69   33   42 1
  70   34   35 ar
  71   34   69 1
  72   35   36 ar
  73   35   70 1
  74   36   37 ar
  75   36   71 1
  76   37   72 1
  77   39   40 1
  78   39   73 1
  79   39   74 1
  80   40   41 1
  81   40   75 1
  82   40   76 1
  83   41   42 1
  84   41   77 1
  85   41   78 1
  86   42   79 1
  87   42   80 1

#	End of record

