#	Name: ASD03240468
#	Creating user name:	WinNT
#	Creation time:	15. 06. 2019 20:35

#	Modifying user name:	WinNT
#	Modification time:	15. 06. 2019 20:35

#	Program:	/corina/corina34_cracker 3.40 0067  02.08.2006

@<TRIPOS>MOLECULE
ASD03240468
  66   71    0    0    0
SMALL
NO_CHARGES


@<TRIPOS>ATOM
   1 C1            -3.3456     1.4761     0.7791 C.ar    
   2 C2            -3.3258     4.3715     0.1522 C.ar    
   3 C3            -2.1632     3.6016    -0.0089 C.ar    
   4 C4            -2.2229     2.1302     0.0765 C.2     
   5 C5            -3.2244     5.7339     0.0647 C.ar    
   6 C6            -1.9779     6.3133    -0.1801 C.ar    
   7 N7            -0.8932     5.5606    -0.3281 N.ar    
   8 C8            -0.9484     4.2485    -0.2517 C.ar    
   9 C9            -1.8632     7.7867    -0.2756 C.2     
  10 C10           -2.8833     8.6873    -0.1454 C.2     
  11 N11           -2.3613     9.9184    -0.2989 N.pl3   
  12 N12           -0.9868     9.7873    -0.5299 N.2     
  13 C13           -0.6806     8.5179    -0.5114 C.2     
  14 C14           -3.6684     0.1459     0.4995 C.ar    
  15 O15           -1.3479     1.4557    -0.4314 O.2     
  16 C16           -4.0853     2.1833     1.7301 C.ar    
  17 C17           -5.1284     1.5654     2.3865 C.ar    
  18 C18           -5.4433     0.2459     2.1051 C.ar    
  19 C19           -4.7138    -0.4606     1.1627 C.ar    
  20 C20            0.6942     7.9357    -0.7166 C.3     
  21 Cl21          -6.7575    -0.5253     2.9368 Cl      
  22 C22           -3.1042    11.1794    -0.2356 C.3     
  23 C23           -2.1360    12.3268    -0.1045 C.ar    
  24 C24           -3.9156    11.3482    -1.4942 C.ar    
  25 C25           -4.0252    11.1605     0.9571 C.ar    
  26 C26           -5.3753    11.4071     0.7918 C.ar    
  27 C27           -6.2201    11.3898     1.8858 C.ar    
  28 C28           -5.7149    11.1254     3.1451 C.ar    
  29 C29           -4.3649    10.8780     3.3103 C.ar    
  30 C30           -3.5209    10.8910     2.2156 C.ar    
  31 C31           -1.1706    12.5306    -1.0726 C.ar    
  32 C32           -0.2825    13.5831    -0.9523 C.ar    
  33 C33           -0.3601    14.4320     0.1359 C.ar    
  34 C34           -1.3261    14.2288     1.1036 C.ar    
  35 C35           -2.2170    13.1789     0.9811 C.ar    
  36 C36           -4.5814    12.5358    -1.7333 C.ar    
  37 C37           -5.3258    12.6905    -2.8878 C.ar    
  38 C38           -5.4040    11.6578    -3.8034 C.ar    
  39 C39           -4.7375    10.4705    -3.5647 C.ar    
  40 C40           -3.9896    10.3174    -2.4123 C.ar    
  41 H41           -4.2795     3.8995     0.3365 H       
  42 H42           -4.1002     6.3546     0.1836 H       
  43 H43           -0.0474     3.6664    -0.3772 H       
  44 H44           -3.9203     8.4535     0.0457 H       
  45 H45           -3.1005    -0.4059    -0.2349 H       
  46 H46           -3.8403     3.2117     1.9509 H       
  47 H47           -5.7010     2.1110     3.1219 H       
  48 H48           -4.9642    -1.4890     0.9478 H       
  49 H49            1.2008     7.8526     0.2449 H       
  50 H50            0.6065     6.9473    -1.1677 H       
  51 H51            1.2695     8.5860    -1.3755 H       
  52 H52           -5.7700    11.6136    -0.1920 H       
  53 H53           -7.2748    11.5832     1.7568 H       
  54 H54           -6.3748    11.1126     3.9999 H       
  55 H55           -3.9702    10.6717     4.2942 H       
  56 H56           -2.4662    10.6976     2.3447 H       
  57 H57           -1.1100    11.8673    -1.9228 H       
  58 H58            0.4723    13.7418    -1.7083 H       
  59 H59            0.3342    15.2539     0.2302 H       
  60 H60           -1.3866    14.8918     1.9539 H       
  61 H61           -2.9718    13.0201     1.7371 H       
  62 H62           -4.5203    13.3426    -1.0180 H       
  63 H63           -5.8465    13.6182    -3.0743 H       
  64 H64           -5.9861    11.7785    -4.7051 H       
  65 H65           -4.7988     9.6636    -4.2799 H       
  66 H66           -3.4688     9.3897    -2.2258 H       
@<TRIPOS>BOND
   1    1   14 ar
   2    1   16 ar
   3    1    4 1
   4    2    3 ar
   5    2    5 ar
   6    2   41 1
   7    3    4 1
   8    3    8 ar
   9    4   15 2
  10    5    6 ar
  11    5   42 1
  12    6    7 ar
  13    6    9 1
  14    7    8 ar
  15    8   43 1
  16    9   10 2
  17    9   13 1
  18   10   11 1
  19   10   44 1
  20   11   12 1
  21   11   22 1
  22   12   13 2
  23   13   20 1
  24   14   19 ar
  25   14   45 1
  26   16   17 ar
  27   16   46 1
  28   17   18 ar
  29   17   47 1
  30   18   19 ar
  31   18   21 1
  32   19   48 1
  33   20   49 1
  34   20   50 1
  35   20   51 1
  36   22   23 1
  37   22   24 1
  38   22   25 1
  39   23   31 ar
  40   23   35 ar
  41   24   36 ar
  42   24   40 ar
  43   25   26 ar
  44   25   30 ar
  45   26   27 ar
  46   26   52 1
  47   27   28 ar
  48   27   53 1
  49   28   29 ar
  50   28   54 1
  51   29   30 ar
  52   29   55 1
  53   30   56 1
  54   31   32 ar
  55   31   57 1
  56   32   33 ar
  57   32   58 1
  58   33   34 ar
  59   33   59 1
  60   34   35 ar
  61   34   60 1
  62   35   61 1
  63   36   37 ar
  64   36   62 1
  65   37   38 ar
  66   37   63 1
  67   38   39 ar
  68   38   64 1
  69   39   40 ar
  70   39   65 1
  71   40   66 1

#	End of record

