#	Name: ASD01914782
#	Creating user name:	WinNT
#	Creation time:	15. 06. 2019 20:04

#	Modifying user name:	WinNT
#	Modification time:	15. 06. 2019 20:04

#	Program:	/corina/corina34_cracker 3.40 0067  02.08.2006

@<TRIPOS>MOLECULE
ASD01914782
  59   63    0    0    0
SMALL
NO_CHARGES


@<TRIPOS>ATOM
   1 N1             0.0268     1.3905    -0.1029 N.2     
   2 C2            -0.0386     0.0588     0.0787 C.2     
   3 C3             1.2323    -0.4203     0.1481 C.2     
   4 N4             2.0697     0.6511     0.0044 N.pl3   
   5 C5             1.2866     1.7584    -0.1492 C.2     
   6 C6            -1.2805    -0.7464     0.1851 C.ar    
   7 C7            -1.2083    -2.1072     0.4776 C.ar    
   8 C8            -2.5225    -0.1431    -0.0014 C.ar    
   9 C9            -3.6749    -0.8956     0.0990 C.ar    
  10 C10           -3.5982    -2.2487     0.3851 C.ar    
  11 C11           -2.3655    -2.8518     0.5761 C.ar    
  12 F12           -4.7290    -2.9816     0.4829 F       
  13 C13            1.7753     3.1416    -0.3365 C.ar    
  14 C14            3.0838     3.4756     0.0156 C.ar    
  15 C15            3.5345     4.7670    -0.1610 C.ar    
  16 C16            2.6904     5.7323    -0.6867 C.ar    
  17 C17            1.3901     5.4058    -1.0380 C.ar    
  18 C18            0.9314     4.1159    -0.8712 C.ar    
  19 C19            3.5342     0.6170     0.0142 C.3     
  20 C20            4.0328     0.8496     1.4171 C.2     
  21 O21            3.2426     1.0265     2.3200 O.2     
  22 N22            5.3569     0.8610     1.6685 N.am    
  23 C23            5.8648     1.0862     3.0304 C.3     
  24 C24            6.3321     0.6425     0.5894 C.3     
  25 C25            7.3076    -0.4543     1.0295 C.3     
  26 N26            7.8897    -0.0946     2.3294 N.3     
  27 C27            6.8596    -0.0290     3.3695 C.3     
  28 C28            8.8955    -0.9797     2.6819 C.ar    
  29 N29            9.9130    -1.1642     1.8542 N.ar    
  30 N30            8.8187    -1.6165     3.8408 N.ar    
  31 C31            9.7616    -2.4684     4.2086 C.ar    
  32 C32           10.8397    -2.6906     3.3634 C.ar    
  33 C33           10.8903    -2.0020     2.1595 C.ar    
  34 F34            3.1365     6.9961    -0.8569 F       
  35 C35           -5.0188    -0.2442    -0.1026 C.3     
  36 F36           11.8207    -3.5534     3.7073 F       
  37 H37            1.5245    -1.4503     0.2899 H       
  38 H38           -0.2478    -2.5781     0.6266 H       
  39 H39           -2.5832     0.9120    -0.2239 H       
  40 H40           -2.3102    -3.9071     0.7990 H       
  41 H41            3.7421     2.7242     0.4261 H       
  42 H42            4.5469     5.0265     0.1112 H       
  43 H43            0.7363     6.1618    -1.4473 H       
  44 H44           -0.0820     3.8625    -1.1456 H       
  45 H45            3.8773    -0.3564    -0.3367 H       
  46 H46            3.9202     1.3966    -0.6425 H       
  47 H47            6.3672     2.0523     3.0787 H       
  48 H48            5.0362     1.0654     3.7383 H       
  49 H49            5.8123     0.3286    -0.3158 H       
  50 H50            6.8802     1.5652     0.3989 H       
  51 H51            6.7743    -1.4007     1.1192 H       
  52 H52            8.1021    -0.5526     0.2898 H       
  53 H53            7.3269     0.1812     4.3315 H       
  54 H54            6.3333    -0.9821     3.4208 H       
  55 H55            9.6935    -2.9843     5.1550 H       
  56 H56           11.7151    -2.1513     1.4785 H       
  57 H57           -5.2937    -0.2965    -1.1560 H       
  58 H58           -5.7679    -0.7642     0.4946 H       
  59 H59           -4.9670     0.7993     0.2080 H       
@<TRIPOS>BOND
   1    1    2 1
   2    1    5 2
   3    2    3 2
   4    2    6 1
   5    3    4 1
   6    3   37 1
   7    4    5 1
   8    4   19 1
   9    5   13 1
  10    6    7 ar
  11    6    8 ar
  12    7   11 ar
  13    7   38 1
  14    8    9 ar
  15    8   39 1
  16    9   10 ar
  17    9   35 1
  18   10   11 ar
  19   10   12 1
  20   11   40 1
  21   13   14 ar
  22   13   18 ar
  23   14   15 ar
  24   14   41 1
  25   15   16 ar
  26   15   42 1
  27   16   17 ar
  28   16   34 1
  29   17   18 ar
  30   17   43 1
  31   18   44 1
  32   19   20 1
  33   19   45 1
  34   19   46 1
  35   20   21 2
  36   20   22 am
  37   22   23 1
  38   22   24 1
  39   23   27 1
  40   23   47 1
  41   23   48 1
  42   24   25 1
  43   24   49 1
  44   24   50 1
  45   25   26 1
  46   25   51 1
  47   25   52 1
  48   26   27 1
  49   26   28 1
  50   27   53 1
  51   27   54 1
  52   28   29 ar
  53   28   30 ar
  54   29   33 ar
  55   30   31 ar
  56   31   32 ar
  57   31   55 1
  58   32   33 ar
  59   32   36 1
  60   33   56 1
  61   35   57 1
  62   35   58 1
  63   35   59 1

#	End of record

