#	Name: ASD01917767
#	Creating user name:	WinNT
#	Creation time:	15. 06. 2019 20:10

#	Modifying user name:	WinNT
#	Modification time:	15. 06. 2019 20:10

#	Program:	/corina/corina34_cracker 3.40 0067  02.08.2006

@<TRIPOS>MOLECULE
ASD01917767
  43   46    0    0    0
SMALL
NO_CHARGES


@<TRIPOS>ATOM
   1 C1            -0.5750     1.8044     1.0801 C.2     
   2 C2            -0.3624     0.4749     1.1141 C.2     
   3 C3            -1.3840    -0.5645     0.7280 C.3     
   4 C4            -2.7754     0.0808     0.7387 C.3     
   5 N5            -2.7082     1.3831     0.0590 N.am    
   6 C6            -1.8757     2.4421     0.6582 C.3     
   7 C7            -3.3897     1.6029    -1.0828 C.2     
   8 O8            -3.9903     0.6911    -1.6173 O.2     
   9 C9            -3.4069     2.9516    -1.6846 C.ar    
  10 O10            0.5531     2.4024     1.4850 O.3     
  11 C11            1.4435     1.4379     1.7661 C.2     
  12 N12            0.8913     0.2768     1.5428 N.2     
  13 C13            2.8505     1.6597     2.2583 C.3     
  14 O14            3.7350     1.7655     1.1409 O.3     
  15 C15            5.0509     1.9685     1.4127 C.ar    
  16 C16            5.9654     2.0806     0.3755 C.ar    
  17 C17            7.3026     2.2869     0.6544 C.ar    
  18 C18            7.7298     2.3817     1.9660 C.ar    
  19 C19            6.8204     2.2698     3.0015 C.ar    
  20 C20            5.4813     2.0696     2.7277 C.ar    
  21 C21           -3.5867     4.0774    -0.8782 C.ar    
  22 C22           -3.6020     5.3343    -1.4450 C.ar    
  23 C23           -3.4397     5.4848    -2.8113 C.ar    
  24 C24           -3.2612     4.3756    -3.6201 C.ar    
  25 C25           -3.2375     3.1075    -3.0636 C.ar    
  26 F26           -3.1040     4.5307    -4.9529 F       
  27 F27           -3.0630     2.0243    -3.8519 F       
  28 H28           -1.1633    -0.9401    -0.2711 H       
  29 H29           -1.3571    -1.3865     1.4434 H       
  30 H30           -3.4811    -0.5662     0.2175 H       
  31 H31           -3.1028     0.2237     1.7685 H       
  32 H32           -2.3807     2.8638     1.5272 H       
  33 H33           -1.6846     3.2241    -0.0766 H       
  34 H34            2.8906     2.5796     2.8417 H       
  35 H35            3.1535     0.8196     2.8832 H       
  36 H36            5.6322     2.0063    -0.6492 H       
  37 H37            8.0149     2.3739    -0.1527 H       
  38 H38            8.7756     2.5430     2.1820 H       
  39 H39            7.1567     2.3435     4.0252 H       
  40 H40            4.7713     1.9824     3.5369 H       
  41 H41           -3.7139     3.9638     0.1883 H       
  42 H42           -3.7414     6.2044    -0.8207 H       
  43 H43           -3.4527     6.4722    -3.2485 H       
@<TRIPOS>BOND
   1    1    2 2
   2    1   10 1
   3    1    6 1
   4    2    3 1
   5    2   12 1
   6    3    4 1
   7    3   28 1
   8    3   29 1
   9    4    5 1
  10    4   30 1
  11    4   31 1
  12    5    6 1
  13    5    7 am
  14    6   32 1
  15    6   33 1
  16    7    8 2
  17    7    9 1
  18    9   21 ar
  19    9   25 ar
  20   10   11 1
  21   11   12 2
  22   11   13 1
  23   13   14 1
  24   13   34 1
  25   13   35 1
  26   14   15 1
  27   15   16 ar
  28   15   20 ar
  29   16   17 ar
  30   16   36 1
  31   17   18 ar
  32   17   37 1
  33   18   19 ar
  34   18   38 1
  35   19   20 ar
  36   19   39 1
  37   20   40 1
  38   21   22 ar
  39   21   41 1
  40   22   23 ar
  41   22   42 1
  42   23   24 ar
  43   23   43 1
  44   24   25 ar
  45   24   26 1
  46   25   27 1

#	End of record

