#	Name: ASD02500219
#	Creating user name:	WinNT
#	Creation time:	15. 06. 2019 20:22

#	Modifying user name:	WinNT
#	Modification time:	15. 06. 2019 20:22

#	Program:	/corina/corina34_cracker 3.40 0067  02.08.2006

@<TRIPOS>MOLECULE
ASD02500219
  53   56    0    0    0
SMALL
NO_CHARGES


@<TRIPOS>ATOM
   1 C1            -1.1712     0.1654     2.6748 C.ar    
   2 C2            -0.7355     0.2757     3.9821 C.ar    
   3 C3             0.3416    -0.4727     4.4176 C.ar    
   4 C4             0.9845    -1.3331     3.5439 C.ar    
   5 C5             0.5473    -1.4428     2.2347 C.ar    
   6 C6            -0.5301    -0.6935     1.8015 C.ar    
   7 S7            -2.5492     1.1147     2.1230 S.o2    
   8 O8            -3.0235     0.4841     0.9412 O.2     
   9 O9            -3.3647     1.3394     3.2648 O.2     
  10 N10           -1.9708     2.5965     1.6625 N.am    
  11 C11           -1.3521     3.4217     2.5950 C.ar    
  12 C12           -0.1471     4.0440     2.2806 C.ar    
  13 C13            0.4677     4.8613     3.2013 C.ar    
  14 C14           -0.1191     5.0664     4.4535 C.ar    
  15 C15           -1.3291     4.4401     4.7662 C.ar    
  16 C16           -1.9418     3.6285     3.8391 C.ar    
  17 C17            0.5376     5.9415     5.4430 C.2     
  18 O18           -0.1296     6.6933     6.1273 O.2     
  19 N19            1.8771     5.9078     5.5886 N.am    
  20 C20            2.5441     6.7095     6.6257 C.3     
  21 C21            3.4716     5.7916     7.4291 C.3     
  22 N22            4.3763     5.0888     6.5096 N.3     
  23 C23            3.6315     4.2150     5.5933 C.3     
  24 C24            2.7099     5.0636     4.7186 C.3     
  25 C25            5.3439     4.3679     7.2130 C.ar    
  26 C26            6.2995     3.6307     6.5252 C.ar    
  27 C27            7.2551     2.9193     7.2238 C.ar    
  28 C28            7.2614     2.9403     8.6065 C.ar    
  29 C29            6.3115     3.6731     9.2944 C.ar    
  30 C30            5.3563     4.3910     8.6019 C.ar    
  31 F31            2.0379    -2.0648     3.9683 F       
  32 H32           -1.2370     0.9472     4.6633 H       
  33 H33            0.6820    -0.3860     5.4389 H       
  34 H34            1.0480    -2.1137     1.5524 H       
  35 H35           -0.8713    -0.7789     0.7804 H       
  36 H36           -2.0636     2.8888     0.7423 H       
  37 H37            0.3059     3.8848     1.3132 H       
  38 H38            1.4027     5.3434     2.9570 H       
  39 H39           -1.7847     4.5963     5.7329 H       
  40 H40           -2.8791     3.1482     4.0783 H       
  41 H41            3.1286     7.5012     6.1570 H       
  42 H42            1.7967     7.1457     7.2885 H       
  43 H43            4.0562     6.3882     8.1295 H       
  44 H44            2.8754     5.0640     7.9798 H       
  45 H45            4.3320     3.6681     4.9622 H       
  46 H46            3.0331     3.5094     6.1695 H       
  47 H47            2.0722     4.4122     4.1212 H       
  48 H48            3.3107     5.6941     4.0631 H       
  49 H49            6.2949     3.6136     5.4454 H       
  50 H50            7.9981     2.3457     6.6897 H       
  51 H51            8.0096     2.3828     9.1504 H       
  52 H52            6.3193     3.6874    10.3742 H       
  53 H53            4.6175     4.9667     9.1396 H       
@<TRIPOS>BOND
   1    1    2 ar
   2    1    6 ar
   3    1    7 1
   4    2    3 ar
   5    2   32 1
   6    3    4 ar
   7    3   33 1
   8    4    5 ar
   9    4   31 1
  10    5    6 ar
  11    5   34 1
  12    6   35 1
  13    7    8 2
  14    7    9 2
  15    7   10 am
  16   10   11 1
  17   10   36 1
  18   11   12 ar
  19   11   16 ar
  20   12   13 ar
  21   12   37 1
  22   13   14 ar
  23   13   38 1
  24   14   15 ar
  25   14   17 1
  26   15   16 ar
  27   15   39 1
  28   16   40 1
  29   17   18 2
  30   17   19 am
  31   19   20 1
  32   19   24 1
  33   20   21 1
  34   20   41 1
  35   20   42 1
  36   21   22 1
  37   21   43 1
  38   21   44 1
  39   22   23 1
  40   22   25 1
  41   23   24 1
  42   23   45 1
  43   23   46 1
  44   24   47 1
  45   24   48 1
  46   25   26 ar
  47   25   30 ar
  48   26   27 ar
  49   26   49 1
  50   27   28 ar
  51   27   50 1
  52   28   29 ar
  53   28   51 1
  54   29   30 ar
  55   29   52 1
  56   30   53 1

#	End of record

