#	Name: ASD04560190
#	Creating user name:	WinNT
#	Creation time:	15. 06. 2019 20:49

#	Modifying user name:	WinNT
#	Modification time:	15. 06. 2019 20:49

#	Program:	/corina/corina34_cracker 3.40 0067  02.08.2006

@<TRIPOS>MOLECULE
ASD04560190
  46   48    0    0    0
SMALL
NO_CHARGES


@<TRIPOS>ATOM
   1 C1             0.0918     1.0932    -0.5149 C.ar    
   2 C2             0.1882    -0.2714    -0.5002 C.ar    
   3 C3             1.4434    -0.8673    -0.3792 C.ar    
   4 N4             2.5415    -0.1294    -0.2780 N.ar    
   5 C5             2.4926     1.1861    -0.2879 C.ar    
   6 C6             1.2699     1.8493    -0.4066 C.ar    
   7 C7             1.2165     3.3230    -0.4176 C.2     
   8 O8             0.1466     3.8919    -0.5214 O.2     
   9 N9             2.3532     4.0394    -0.3126 N.am    
  10 C10            2.3164     5.4331    -0.4385 C.ar    
  11 C11            3.1786     6.2214     0.3153 C.ar    
  12 C12            1.3911     7.4153    -1.4409 C.ar    
  13 C13            1.4249     6.0250    -1.3181 C.ar    
  14 S14            1.5727    -2.6245    -0.3599 S.3     
  15 C15            3.3655    -2.8059    -0.1897 C.3     
  16 C16            3.7208    -4.2699    -0.1502 C.ar    
  17 C17            3.9034    -4.9762    -1.3376 C.ar    
  18 C18            3.8714    -4.9122     1.0619 C.ar    
  19 B19            3.7404    -4.2495    -2.7197 Du      
  20 C20            3.1479     7.5974     0.1963 C.ar    
  21 C21            2.2583     8.2008    -0.6738 C.ar    
  22 F22            2.2311     9.5467    -0.7875 F       
  23 C23            4.2319    -6.3304    -1.2937 C.ar    
  24 C24            4.3744    -6.9638    -0.0765 C.ar    
  25 C25            4.1979    -6.2560     1.0996 C.ar    
  26 O26            4.4009    -4.7557    -3.8703 O.3     
  27 O27            2.9324    -3.0860    -2.8192 O.3     
  28 C28            0.4445     8.0538    -2.3759 C.2     
  29 O29            0.4172     9.2639    -2.4808 O.2     
  30 O30           -0.3893     7.2948    -3.1133 O.3     
  31 H31           -0.8685     1.5779    -0.6121 H       
  32 H32           -0.6993    -0.8814    -0.5813 H       
  33 H33            3.4056     1.7568    -0.2036 H       
  34 H34            3.1969     3.5892    -0.1499 H       
  35 H35            3.8751     5.7560     0.9970 H       
  36 H36            0.7582     5.4129    -1.9074 H       
  37 H37            3.8606    -2.3346    -1.0388 H       
  38 H38            3.6931    -2.3275     0.7333 H       
  39 H39            3.7344    -4.3647     1.9827 H       
  40 H40            3.8204     8.2038     0.7848 H       
  41 H41            4.3743    -6.8826    -2.2109 H       
  42 H42            4.6285    -8.0129    -0.0413 H       
  43 H43            4.3103    -6.7559     2.0503 H       
  44 H44            4.2407    -4.2419    -4.6737 H       
  45 H45            2.8929    -2.7095    -3.7090 H       
  46 H46           -0.9913     7.7581    -3.7117 H       
@<TRIPOS>BOND
   1    1    2 ar
   2    1    6 ar
   3    1   31 1
   4    2    3 ar
   5    2   32 1
   6    3    4 ar
   7    3   14 1
   8    4    5 ar
   9    5    6 ar
  10    5   33 1
  11    6    7 1
  12    7    8 2
  13    7    9 am
  14    9   10 1
  15    9   34 1
  16   10   11 ar
  17   10   13 ar
  18   11   20 ar
  19   11   35 1
  20   12   13 ar
  21   12   28 1
  22   12   21 ar
  23   13   36 1
  24   14   15 1
  25   15   16 1
  26   15   37 1
  27   15   38 1
  28   16   17 ar
  29   16   18 ar
  30   17   19 1
  31   17   23 ar
  32   18   25 ar
  33   18   39 1
  34   19   26 1
  35   19   27 1
  36   20   21 ar
  37   20   40 1
  38   21   22 1
  39   23   24 ar
  40   23   41 1
  41   24   25 ar
  42   24   42 1
  43   25   43 1
  44   26   44 1
  45   27   45 1
  46   28   29 2
  47   28   30 1
  48   30   46 1

#	End of record

