#	Name: ASD01916134
#	Creating user name:	WinNT
#	Creation time:	15. 06. 2019 20:06

#	Modifying user name:	WinNT
#	Modification time:	15. 06. 2019 20:06

#	Program:	/corina/corina34_cracker 3.40 0067  02.08.2006

@<TRIPOS>MOLECULE
ASD01916134
  46   49    0    0    0
SMALL
NO_CHARGES


@<TRIPOS>ATOM
   1 C1            -0.1065     1.3873     0.0642 C.ar    
   2 C2            -0.0748     0.0043     0.0505 C.ar    
   3 C3            -1.2609    -0.7149     0.0415 C.ar    
   4 C4            -2.4759    -0.0454     0.0463 C.ar    
   5 C5            -2.5035     1.3360     0.0600 C.ar    
   6 C6            -1.3216     2.0523     0.0748 C.ar    
   7 O7            -1.2326    -2.0735     0.0276 O.3     
   8 C8            -2.4921    -2.7485     0.0189 C.3     
   9 C9            -2.2636    -4.2380     0.0039 C.2     
  10 C10           -1.0173    -4.8772    -0.0010 C.2     
  11 N11           -3.1966    -5.1578    -0.0011 N.2     
  12 N12           -2.5749    -6.4093    -0.0109 N.pl3   
  13 C13           -1.2373    -6.2055    -0.0156 C.2     
  14 C14           -3.2232    -7.7236    -0.0065 C.3     
  15 C15           -2.2216    -8.7826    -0.4799 C.3     
  16 N16           -0.9373    -8.5758     0.2065 N.am    
  17 C17           -0.2133    -7.3155    -0.0401 C.3     
  18 C18           -0.4373    -9.5094     1.0400 C.2     
  19 C19            0.9135    -9.3387     1.6162 C.ar    
  20 O20           -1.0970   -10.4917     1.3181 O.2     
  21 C21            1.1938    -9.7780     2.9154 C.ar    
  22 C22            2.4743    -9.5950     3.4076 C.ar    
  23 C23            3.4269    -8.9900     2.6080 C.ar    
  24 N24            3.1339    -8.5854     1.3867 N.ar    
  25 C25            1.9322    -8.7422     0.8718 C.ar    
  26 F26            1.0477     2.0894     0.0730 F       
  27 C27            4.8224    -8.7891     3.1405 C.3     
  28 H28            0.8723    -0.5147     0.0464 H       
  29 H29           -3.4002    -0.6040     0.0390 H       
  30 H30           -3.4497     1.8565     0.0638 H       
  31 H31           -1.3454     3.1320     0.0858 H       
  32 H32           -3.0563    -2.4764     0.9110 H       
  33 H33           -3.0539    -2.4581    -0.8689 H       
  34 H34           -0.0526    -4.3916     0.0058 H       
  35 H35           -3.5550    -7.9624     1.0039 H       
  36 H36           -4.0815    -7.7084    -0.6782 H       
  37 H37           -2.6039    -9.7760    -0.2453 H       
  38 H38           -2.0777    -8.6920    -1.5566 H       
  39 H39            0.2709    -7.3496    -1.0160 H       
  40 H40            0.5309    -7.1554     0.7400 H       
  41 H41            0.4305   -10.2472     3.5183 H       
  42 H42            2.7270    -9.9210     4.4058 H       
  43 H43            1.7308    -8.3982    -0.1319 H       
  44 H44            5.4322    -9.6597     2.8991 H       
  45 H45            5.2606    -7.9010     2.6851 H       
  46 H46            4.7836    -8.6612     4.2222 H       
@<TRIPOS>BOND
   1    1    2 ar
   2    1   26 1
   3    1    6 ar
   4    2    3 ar
   5    2   28 1
   6    3    4 ar
   7    3    7 1
   8    4    5 ar
   9    4   29 1
  10    5    6 ar
  11    5   30 1
  12    6   31 1
  13    7    8 1
  14    8    9 1
  15    8   32 1
  16    8   33 1
  17    9   10 1
  18    9   11 2
  19   10   13 2
  20   10   34 1
  21   11   12 1
  22   12   13 1
  23   12   14 1
  24   13   17 1
  25   14   15 1
  26   14   35 1
  27   14   36 1
  28   15   16 1
  29   15   37 1
  30   15   38 1
  31   16   17 1
  32   16   18 am
  33   17   39 1
  34   17   40 1
  35   18   19 1
  36   18   20 2
  37   19   21 ar
  38   19   25 ar
  39   21   22 ar
  40   21   41 1
  41   22   23 ar
  42   22   42 1
  43   23   24 ar
  44   23   27 1
  45   24   25 ar
  46   25   43 1
  47   27   44 1
  48   27   45 1
  49   27   46 1

#	End of record

