#	Name: ASD02198440
#	Creating user name:	WinNT
#	Creation time:	15. 06. 2019 20:19

#	Modifying user name:	WinNT
#	Modification time:	15. 06. 2019 20:19

#	Program:	/corina/corina34_cracker 3.40 0067  02.08.2006

@<TRIPOS>MOLECULE
ASD02198440
  43   46    0    0    0
SMALL
NO_CHARGES


@<TRIPOS>ATOM
   1 C1             0.1638     1.8641     0.1836 C.ar    
   2 S2             0.0745     0.1100     0.0434 S.o2    
   3 N3             0.0238    -0.5027     1.5810 N.am    
   4 C4            -1.0187    -0.1512     2.4375 C.ar    
   5 C5            -0.7779     0.0207     3.8185 C.ar    
   6 C6            -1.8554     0.3784     4.6651 C.ar    
   7 C7            -3.1385     0.5551     4.1228 C.ar    
   8 C8            -3.3412     0.3822     2.7871 C.ar    
   9 C9            -2.2908     0.0368     1.9422 C.ar    
  10 N10            0.4436    -0.1492     4.3312 N.ar    
  11 C11            0.6733     0.0085     5.6122 C.ar    
  12 C12           -0.3411     0.3595     6.5006 C.ar    
  13 C13           -1.6132     0.5493     6.0416 C.ar    
  14 O14           -1.1849    -0.1818    -0.5466 O.2     
  15 O15            1.3110    -0.3113    -0.5159 O.2     
  16 C16            1.3927     2.4878     0.2530 C.ar    
  17 C17            1.4618     3.8757     0.3635 C.ar    
  18 C18            0.2877     4.6255     0.4031 C.ar    
  19 C19           -0.9360     3.9910     0.3328 C.ar    
  20 C20           -0.9984     2.6140     0.2180 C.ar    
  21 C21            2.7796     4.5517     0.4390 C.ar    
  22 C22            2.8592     5.9421     0.5498 C.ar    
  23 C23            4.1129     6.5239     0.6174 C.ar    
  24 N24            5.1868     5.7505     0.5752 N.ar    
  25 C25            5.0780     4.4408     0.4702 C.ar    
  26 N26            3.9067     3.8431     0.4080 N.ar    
  27 C27            6.3303     3.6035     0.4255 C.3     
  28 H28            0.7194    -1.1061     1.8858 H       
  29 H29           -3.9636     0.8275     4.7641 H       
  30 H30           -4.3308     0.5195     2.3770 H       
  31 H31           -2.4768    -0.0943     0.8865 H       
  32 H32            1.6749    -0.1378     5.9888 H       
  33 H33           -0.1215     0.4817     7.5509 H       
  34 H34           -2.4116     0.8219     6.7160 H       
  35 H35            2.2993     1.9017     0.2223 H       
  36 H36            0.3353     5.7011     0.4889 H       
  37 H37           -1.8465     4.5710     0.3634 H       
  38 H38           -1.9581     2.1217     0.1630 H       
  39 H39            1.9653     6.5474     0.5816 H       
  40 H40            4.2142     7.5957     0.7031 H       
  41 H41            6.6148     3.3210     1.4391 H       
  42 H42            6.1460     2.7053    -0.1638 H       
  43 H43            7.1358     4.1787    -0.0310 H       
@<TRIPOS>BOND
   1    1    2 1
   2    1   16 ar
   3    1   20 ar
   4    2    3 am
   5    2   14 2
   6    2   15 2
   7    3    4 1
   8    3   28 1
   9    4    5 ar
  10    4    9 ar
  11    5    6 ar
  12    5   10 ar
  13    6    7 ar
  14    6   13 ar
  15    7    8 ar
  16    7   29 1
  17    8    9 ar
  18    8   30 1
  19    9   31 1
  20   10   11 ar
  21   11   12 ar
  22   11   32 1
  23   12   13 ar
  24   12   33 1
  25   13   34 1
  26   16   17 ar
  27   16   35 1
  28   17   18 ar
  29   17   21 1
  30   18   19 ar
  31   18   36 1
  32   19   20 ar
  33   19   37 1
  34   20   38 1
  35   21   22 ar
  36   21   26 ar
  37   22   23 ar
  38   22   39 1
  39   23   24 ar
  40   23   40 1
  41   24   25 ar
  42   25   26 ar
  43   25   27 1
  44   27   41 1
  45   27   42 1
  46   27   43 1

#	End of record

