#	Name: ASD01140099
#	Creating user name:	WinNT
#	Creation time:	15. 06. 2019 18:59

#	Modifying user name:	WinNT
#	Modification time:	15. 06. 2019 18:59

#	Program:	/corina/corina34_cracker 3.40 0067  02.08.2006

@<TRIPOS>MOLECULE
ASD01140099
  25   25    0    0    0
SMALL
NO_CHARGES


@<TRIPOS>ATOM
   1 C1            -0.0183     1.4956     0.0103 C.2     
   2 C2             0.0021    -0.0041     0.0020 C.3     
   3 C3             1.3260    -0.5348    -0.5460 C.3     
   4 C4             2.4835     0.1154     0.2253 C.3     
   5 C5             2.4070     1.6080    -0.0219 C.2     
   6 C6             1.0825     2.2374     0.0037 C.2     
   7 C7             0.9702     3.7401     0.0228 C.3     
   8 O8             3.4076     2.2608    -0.2335 O.2     
   9 C9             1.3807    -2.0306    -0.3709 C.2     
  10 C10            1.2920    -2.6315     1.0082 C.3     
  11 C11            1.5055    -2.8084    -1.4176 C.2     
  12 H12           -0.9751     1.9964     0.0174 H       
  13 H13           -0.1353    -0.3690     1.0199 H       
  14 H14           -0.8146    -0.3692    -0.6208 H       
  15 H15            1.4082    -0.2869    -1.6043 H       
  16 H16            2.3807    -0.0898     1.2908 H       
  17 H17            3.4353    -0.2724    -0.1379 H       
  18 H18            0.9289     4.1143    -1.0001 H       
  19 H19            0.0629     4.0299     0.5526 H       
  20 H20            1.8377     4.1628     0.5296 H       
  21 H21            0.2476    -2.8240     1.2541 H       
  22 H22            1.8496    -3.5677     1.0332 H       
  23 H23            1.7144    -1.9375     1.7348 H       
  24 H24            1.5448    -3.8804    -1.2921 H       
  25 H25            1.5692    -2.3777    -2.4059 H       
@<TRIPOS>BOND
   1    1    2 1
   2    1    6 2
   3    1   12 1
   4    2    3 1
   5    2   13 1
   6    2   14 1
   7    3    4 1
   8    3    9 1
   9    3   15 1
  10    4    5 1
  11    4   16 1
  12    4   17 1
  13    5    6 1
  14    5    8 2
  15    6    7 1
  16    7   18 1
  17    7   19 1
  18    7   20 1
  19    9   10 1
  20    9   11 2
  21   10   21 1
  22   10   22 1
  23   10   23 1
  24   11   24 1
  25   11   25 1

#	End of record

