#	Name: ASD00602008
#	Creating user name:	WinNT
#	Creation time:	15. 06. 2019 18:36

#	Modifying user name:	WinNT
#	Modification time:	15. 06. 2019 18:36

#	Program:	/corina/corina34_cracker 3.40 0067  02.08.2006

@<TRIPOS>MOLECULE
ASD00602008
  82   84    0    0    0
SMALL
NO_CHARGES


@<TRIPOS>ATOM
   1 C1            -0.0187     1.5270     0.0104 C.3     
   2 C2             0.0021    -0.0041     0.0020 C.3     
   3 C3            -1.4335    -0.5293     0.0744 C.3     
   4 N4            -2.0748    -0.0373     1.3005 N.3     
   5 C5            -2.1488     1.4293     1.3093 C.3     
   6 C6            -0.7345     2.0129     1.2737 C.3     
   7 N7             1.3553     2.0353     0.0000 N.am    
   8 C8             1.8117     2.8903    -1.0985 C.3     
   9 C9             1.5481     4.3336    -0.7546 C.2     
  10 C10            2.4383     5.0926    -0.1136 C.2     
  11 S11            1.7825     6.7092     0.1104 S.3     
  12 C12            0.2923     6.2498    -0.7030 C.2     
  13 C13            0.3661     4.9739    -1.0850 C.2     
  14 C14            2.1994     1.7163     1.0012 C.2     
  15 N15            3.4634     2.1840     0.9916 N.am    
  16 O16            1.8206     1.0067     1.9129 O.2     
  17 C17            4.3809     1.8373     2.0798 C.3     
  18 C18           -3.4066    -0.6327     1.4733 C.3     
  19 C19           -3.9902    -0.1952     2.8183 C.3     
  20 C20           -4.3250    -0.1649     0.3425 C.3     
  21 C21           -3.1400    -0.7685     3.9538 C.3     
  22 N22           -3.6988    -0.3496     5.2416 N.am    
  23 C23           -3.1106    -0.7388     6.3901 C.2     
  24 C24           -3.6743    -0.3162     7.6892 C.ar    
  25 O25           -2.1163    -1.4375     6.3573 O.2     
  26 C26           -3.2544     0.8698     8.2921 C.ar    
  27 N27           -3.7562     1.2471     9.4498 N.ar    
  28 C28           -4.6663     0.5292    10.0821 C.ar    
  29 C29           -5.1348    -0.6608     9.5490 C.ar    
  30 C30           -4.6432    -1.0970     8.3327 C.ar    
  31 C31           -5.1281    -2.3859     7.7206 C.3     
  32 C32           -2.2172     1.7265     7.6129 C.3     
  33 Cl33          -5.2852     1.0849    11.6058 Cl      
  34 C34            5.7408     2.4916     1.8282 C.3     
  35 C35            6.6991     2.1296     2.9647 C.3     
  36 C36            8.0590     2.7839     2.7131 C.3     
  37 C37            9.0029     2.4273     3.8324 C.2     
  38 O38            8.6264     1.7221     4.7385 O.2     
  39 O39           10.2617     2.8930     3.8229 O.3     
  40 C40           11.1151     2.5091     4.9332 C.3     
  41 H41           -0.5477     1.8889    -0.8712 H       
  42 H42            0.4727    -0.3566    -0.9158 H       
  43 H43            0.5655    -0.3651     0.8624 H       
  44 H44           -1.9925    -0.1792    -0.7934 H       
  45 H45           -1.4215    -1.6192     0.0830 H       
  46 H46           -2.7044     1.7701     0.4357 H       
  47 H47           -2.6563     1.7619     2.2148 H       
  48 H48           -0.1827     1.6836     2.1542 H       
  49 H49           -0.7902     3.1015     1.2645 H       
  50 H50            2.8805     2.7431    -1.2536 H       
  51 H51            1.2731     2.6297    -2.0096 H       
  52 H52            3.4125     4.7645     0.2175 H       
  53 H53           -0.5516     6.9023    -0.8716 H       
  54 H54           -0.4385     4.4759    -1.6055 H       
  55 H55            3.7656     2.7501     0.2642 H       
  56 H56            3.9747     2.1957     3.0256 H       
  57 H57            4.5009     0.7548     2.1228 H       
  58 H58           -3.3248    -1.7193     1.4490 H       
  59 H59           -3.9896     0.8932     2.8778 H       
  60 H60           -5.0122    -0.5634     2.9079 H       
  61 H61           -4.4068     0.9217     0.3668 H       
  62 H62           -3.9092    -0.4766    -0.6157 H       
  63 H63           -5.3132    -0.6067     0.4707 H       
  64 H64           -3.1406    -1.8569     3.8943 H       
  65 H65           -2.1180    -0.4003     3.8641 H       
  66 H66           -4.4922     0.2079     5.2678 H       
  67 H67           -5.8792    -1.2392    10.0759 H       
  68 H68           -5.9923    -2.1849     7.0874 H       
  69 H69           -4.3317    -2.8251     7.1198 H       
  70 H70           -5.4111    -3.0801     8.5120 H       
  71 H71           -2.7111     2.4455     6.9593 H       
  72 H72           -1.6363     2.2592     8.3658 H       
  73 H73           -1.5540     1.0945     7.0224 H       
  74 H74            6.1471     2.1332     0.8823 H       
  75 H75            5.6208     3.5742     1.7851 H       
  76 H76            6.2929     2.4880     3.9105 H       
  77 H77            6.8191     1.0471     3.0077 H       
  78 H78            8.4652     2.4255     1.7672 H       
  79 H79            7.9390     3.8664     2.6700 H       
  80 H80           10.6785     2.8641     5.8667 H       
  81 H81           11.2047     1.4232     4.9639 H       
  82 H82           12.1025     2.9517     4.8025 H       
@<TRIPOS>BOND
   1    1    2 1
   2    1    7 1
   3    1    6 1
   4    1   41 1
   5    2    3 1
   6    2   42 1
   7    2   43 1
   8    3    4 1
   9    3   44 1
  10    3   45 1
  11    4    5 1
  12    4   18 1
  13    5    6 1
  14    5   46 1
  15    5   47 1
  16    6   48 1
  17    6   49 1
  18    7    8 1
  19    7   14 am
  20    8    9 1
  21    8   50 1
  22    8   51 1
  23    9   10 2
  24    9   13 1
  25   10   11 1
  26   10   52 1
  27   11   12 1
  28   12   13 2
  29   12   53 1
  30   13   54 1
  31   14   15 am
  32   14   16 2
  33   15   17 1
  34   15   55 1
  35   17   34 1
  36   17   56 1
  37   17   57 1
  38   18   19 1
  39   18   20 1
  40   18   58 1
  41   19   21 1
  42   19   59 1
  43   19   60 1
  44   20   61 1
  45   20   62 1
  46   20   63 1
  47   21   22 1
  48   21   64 1
  49   21   65 1
  50   22   23 am
  51   22   66 1
  52   23   24 1
  53   23   25 2
  54   24   26 ar
  55   24   30 ar
  56   26   27 ar
  57   26   32 1
  58   27   28 ar
  59   28   29 ar
  60   28   33 1
  61   29   30 ar
  62   29   67 1
  63   30   31 1
  64   31   68 1
  65   31   69 1
  66   31   70 1
  67   32   71 1
  68   32   72 1
  69   32   73 1
  70   34   35 1
  71   34   74 1
  72   34   75 1
  73   35   36 1
  74   35   76 1
  75   35   77 1
  76   36   37 1
  77   36   78 1
  78   36   79 1
  79   37   38 2
  80   37   39 1
  81   39   40 1
  82   40   80 1
  83   40   81 1
  84   40   82 1

#	End of record

