#	Name: ASD01882542
#	Creating user name:	WinNT
#	Creation time:	15. 06. 2019 19:44

#	Modifying user name:	WinNT
#	Modification time:	15. 06. 2019 19:44

#	Program:	/corina/corina34_cracker 3.40 0067  02.08.2006

@<TRIPOS>MOLECULE
ASD01882542
  51   54    0    0    0
SMALL
NO_CHARGES


@<TRIPOS>ATOM
   1 C1            -0.0170     1.4050     0.0098 C.2     
   2 C2             0.0021    -0.0041     0.0020 C.2     
   3 C3             1.1991    -0.6521    -0.0129 C.2     
   4 C4             2.3930     0.0893    -0.0203 C.2     
   5 C5             2.3588     1.4383    -0.0123 C.2     
   6 N6             1.1665     2.1012     0.0022 N.pl3   
   7 N7            -0.4824     3.4846     0.0225 N.2     
   8 N8            -0.9895     2.3019     0.0186 N.2     
   9 C9             0.8240     3.4179     0.0121 C.2     
  10 C10            1.7759     4.5862     0.0100 C.3     
  11 C11            2.0856     4.9891    -1.4332 C.3     
  12 F12            0.8998     5.3525    -2.0805 F       
  13 F13            2.9692     6.0737    -1.4352 F       
  14 F14            2.6708     3.9095    -2.1035 F       
  15 C15            1.2438    -2.1584    -0.0209 C.3     
  16 N16            1.3656    -2.6373    -1.4043 N.3     
  17 C17            1.6494    -4.0776    -1.4395 C.3     
  18 C18            1.6252    -4.5684    -2.8889 C.3     
  19 C19            2.6744    -3.8025    -3.6995 C.3     
  20 C20            2.3842    -2.3019    -3.6067 C.3     
  21 C21            2.3864    -1.8769    -2.1365 C.3     
  22 C22            4.0669    -4.0899    -3.1345 C.3     
  23 C23            2.6144    -4.2388    -5.1407 C.ar    
  24 C24            3.4742    -3.6806    -6.0679 C.ar    
  25 C25            3.4191    -4.0820    -7.3917 C.ar    
  26 C26            2.5025    -5.0425    -7.7853 C.ar    
  27 C27            1.6440    -5.5991    -6.8566 C.ar    
  28 C28            1.7035    -5.2013    -5.5338 C.ar    
  29 F29            4.2587    -3.5367    -8.2989 F       
  30 Cl30          -1.4832    -0.9027     0.0120 Cl      
  31 H31            3.3434    -0.4236    -0.0322 H       
  32 H32            3.2826     1.9976    -0.0178 H       
  33 H33            1.3200     5.4273     0.5322 H       
  34 H34            2.6998     4.3030     0.5143 H       
  35 H35            2.1017    -2.4995     0.5585 H       
  36 H36            0.3279    -2.5514     0.4204 H       
  37 H37            2.6332    -4.2645    -1.0092 H       
  38 H38            0.8936    -4.6109    -0.8629 H       
  39 H39            1.8513    -5.6343    -2.9160 H       
  40 H40            0.6374    -4.3943    -3.3156 H       
  41 H41            3.1526    -1.7486    -4.1466 H       
  42 H42            1.4084    -2.0922    -4.0447 H       
  43 H43            2.1659    -0.8117    -2.0661 H       
  44 H44            3.3668    -2.0741    -1.7029 H       
  45 H45            4.2704    -5.1590    -3.1958 H       
  46 H46            4.8131    -3.5443    -3.7121 H       
  47 H47            4.1093    -3.7711    -2.0930 H       
  48 H48            4.1884    -2.9314    -5.7598 H       
  49 H49            2.4584    -5.3561    -8.8178 H       
  50 H50            0.9291    -6.3482    -7.1634 H       
  51 H51            1.0351    -5.6401    -4.8078 H       
@<TRIPOS>BOND
   1    1    2 1
   2    1    6 1
   3    1    8 2
   4    2    3 2
   5    2   30 1
   6    3    4 1
   7    3   15 1
   8    4    5 2
   9    4   31 1
  10    5    6 1
  11    5   32 1
  12    6    9 1
  13    7    8 1
  14    7    9 2
  15    9   10 1
  16   10   11 1
  17   10   33 1
  18   10   34 1
  19   11   12 1
  20   11   13 1
  21   11   14 1
  22   15   16 1
  23   15   35 1
  24   15   36 1
  25   16   17 1
  26   16   21 1
  27   17   18 1
  28   17   37 1
  29   17   38 1
  30   18   19 1
  31   18   39 1
  32   18   40 1
  33   19   20 1
  34   19   22 1
  35   19   23 1
  36   20   21 1
  37   20   41 1
  38   20   42 1
  39   21   43 1
  40   21   44 1
  41   22   45 1
  42   22   46 1
  43   22   47 1
  44   23   24 ar
  45   23   28 ar
  46   24   25 ar
  47   24   48 1
  48   25   26 ar
  49   25   29 1
  50   26   27 ar
  51   26   49 1
  52   27   28 ar
  53   27   50 1
  54   28   51 1

#	End of record

