#	Name: ASD01916081
#	Creating user name:	WinNT
#	Creation time:	15. 06. 2019 20:06

#	Modifying user name:	WinNT
#	Modification time:	15. 06. 2019 20:06

#	Program:	/corina/corina34_cracker 3.40 0067  02.08.2006

@<TRIPOS>MOLECULE
ASD01916081
  40   42    0    0    0
SMALL
NO_CHARGES


@<TRIPOS>ATOM
   1 C1            -0.4097     1.7395     0.1051 C.ar    
   2 C2            -0.5421     0.3893     0.3739 C.ar    
   3 N3             0.5012    -0.3405     0.7072 N.ar    
   4 C4             1.7191     0.1812     0.8001 C.ar    
   5 C5             1.9322     1.5321     0.5448 C.ar    
   6 C6             0.8481     2.3308     0.1897 C.ar    
   7 C7            -1.9011    -0.2557     0.2843 C.3     
   8 O8             1.0136     3.6532    -0.0679 O.3     
   9 C9             2.2653     4.1720     0.0375 C.ar    
  10 C10            3.1955     3.9761    -0.9729 C.ar    
  11 N11            4.4109     4.4771    -0.8747 N.ar    
  12 C12            4.7903     5.1782     0.1756 C.ar    
  13 C13            3.9193     5.4160     1.2226 C.ar    
  14 C14            2.6304     4.9122     1.1579 C.ar    
  15 C15            2.8608    -0.6830     1.1795 C.2     
  16 N16            2.6612    -1.9924     1.4286 N.am    
  17 O17            3.9773    -0.2114     1.2661 O.2     
  18 C18            3.7477    -2.8267     1.6821 C.ar    
  19 C19            3.5469    -4.1948     1.8229 C.ar    
  20 C20            4.6347    -5.0132     2.0746 C.ar    
  21 C21            5.8905    -4.4326     2.1773 C.ar    
  22 C22            6.0178    -3.0639     2.0262 C.ar    
  23 N23            4.9626    -2.3096     1.7814 N.ar    
  24 C24            6.1925     5.7272     0.2359 C.3     
  25 Cl25           7.5856    -2.3294     2.1532 Cl      
  26 H26           -1.2719     2.3280    -0.1718 H       
  27 H27            2.9231     1.9548     0.6207 H       
  28 H28           -2.0620    -0.6249    -0.7286 H       
  29 H29           -1.9558    -1.0871     0.9870 H       
  30 H30           -2.6686     0.4784     0.5296 H       
  31 H31            2.9212     3.4070    -1.8489 H       
  32 H32            4.2387     5.9910     2.0792 H       
  33 H33            1.9289     5.0825     1.9612 H       
  34 H34            1.7611    -2.3539     1.4314 H       
  35 H35            2.5552    -4.6139     1.7373 H       
  36 H36            4.5085    -6.0797     2.1889 H       
  37 H37            6.7596    -5.0431     2.3734 H       
  38 H38            6.2128     6.7215    -0.2102 H       
  39 H39            6.5142     5.7887     1.2755 H       
  40 H40            6.8645     5.0684    -0.3141 H       
@<TRIPOS>BOND
   1    1    2 ar
   2    1    6 ar
   3    1   26 1
   4    2    3 ar
   5    2    7 1
   6    3    4 ar
   7    4    5 ar
   8    4   15 1
   9    5    6 ar
  10    5   27 1
  11    6    8 1
  12    7   28 1
  13    7   29 1
  14    7   30 1
  15    8    9 1
  16    9   10 ar
  17    9   14 ar
  18   10   11 ar
  19   10   31 1
  20   11   12 ar
  21   12   13 ar
  22   12   24 1
  23   13   14 ar
  24   13   32 1
  25   14   33 1
  26   15   16 am
  27   15   17 2
  28   16   18 1
  29   16   34 1
  30   18   19 ar
  31   18   23 ar
  32   19   20 ar
  33   19   35 1
  34   20   21 ar
  35   20   36 1
  36   21   22 ar
  37   21   37 1
  38   22   23 ar
  39   22   25 1
  40   24   38 1
  41   24   39 1
  42   24   40 1

#	End of record

