#	Name: ASD03900019
#	Creating user name:	WinNT
#	Creation time:	15. 06. 2019 20:47

#	Modifying user name:	WinNT
#	Modification time:	15. 06. 2019 20:47

#	Program:	/corina/corina34_cracker 3.40 0067  02.08.2006

@<TRIPOS>MOLECULE
ASD03900019
  47   51    0    0    0
SMALL
NO_CHARGES


@<TRIPOS>ATOM
   1 C1             0.2752     0.3549     0.5147 C.ar    
   2 C2             0.6445    -0.9722     0.3460 C.ar    
   3 C3             1.9615    -1.2905     0.0580 C.ar    
   4 C4             2.9116    -0.2836    -0.0621 C.ar    
   5 C5             2.5368     1.0399     0.1054 C.ar    
   6 C6             1.2202     1.3543     0.3941 C.ar    
   7 O7             4.1946    -0.6163    -0.3407 O.3     
   8 C8             5.0415     0.3063    -0.8566 C.ar    
   9 C9             4.7817     1.6620    -0.7346 C.ar    
  10 C10            3.5475     2.1479    -0.0233 C.3     
  11 C11            6.1865    -0.1203    -1.5181 C.ar    
  12 C12            7.0664     0.8065    -2.0522 C.ar    
  13 C13            6.8022     2.1630    -1.9256 C.ar    
  14 C14            5.6630     2.5855    -1.2697 C.ar    
  15 O15            2.9609     3.2550    -0.7697 O.3     
  16 C16            2.9483     4.3547     0.0096 C.2     
  17 C17            3.5231     4.0479     1.3188 C.ar    
  18 C18            3.9012     2.6921     1.3249 C.ar    
  19 C19            3.7209     4.8518     2.4453 C.ar    
  20 C20            4.3006     4.2476     3.5504 C.ar    
  21 C21            4.6682     2.9165     3.5455 C.ar    
  22 C22            4.4765     2.1063     2.4301 C.ar    
  23 O23            2.5222     5.4414    -0.3265 O.2     
  24 O24            8.1865     0.3883    -2.6986 O.3     
  25 O25           -0.2841    -1.9577     0.4635 O.3     
  26 C26           -0.2703    -2.6761     1.5977 C.2     
  27 C27            8.0325    -0.0684    -3.9518 C.2     
  28 C28            9.2391    -0.4654    -4.7628 C.3     
  29 O29            6.9265    -0.1610    -4.4294 O.2     
  30 C30           -1.2051    -3.8470     1.7594 C.3     
  31 O31            0.4916    -2.3838     2.4888 O.2     
  32 H32           -0.7516     0.6060     0.7358 H       
  33 H33            2.2504    -2.3228    -0.0732 H       
  34 H34            0.9305     2.3865     0.5249 H       
  35 H35            6.3908    -1.1763    -1.6158 H       
  36 H36            7.4869     2.8878    -2.3408 H       
  37 H37            5.4593     3.6416    -1.1724 H       
  38 H38            3.4361     5.8935     2.4542 H       
  39 H39            4.4699     4.8351     4.4407 H       
  40 H40            5.1170     2.4924     4.4316 H       
  41 H41            4.7655     1.0657     2.4316 H       
  42 H42           10.1411    -0.3138    -4.1700 H       
  43 H43            9.1598    -1.5162    -5.0415 H       
  44 H44            9.2890     0.1467    -5.6633 H       
  45 H45           -1.8108    -3.9554     0.8596 H       
  46 H46           -0.6249    -4.7559     1.9184 H       
  47 H47           -1.8559    -3.6767     2.6170 H       
@<TRIPOS>BOND
   1    1    2 ar
   2    1    6 ar
   3    1   32 1
   4    2    3 ar
   5    2   25 1
   6    3    4 ar
   7    3   33 1
   8    4    5 ar
   9    4    7 1
  10    5    6 ar
  11    5   10 1
  12    6   34 1
  13    7    8 1
  14    8    9 ar
  15    8   11 ar
  16    9   10 1
  17    9   14 ar
  18   10   15 1
  19   10   18 1
  20   11   12 ar
  21   11   35 1
  22   12   13 ar
  23   12   24 1
  24   13   14 ar
  25   13   36 1
  26   14   37 1
  27   15   16 1
  28   16   17 1
  29   16   23 2
  30   17   18 ar
  31   17   19 ar
  32   18   22 ar
  33   19   20 ar
  34   19   38 1
  35   20   21 ar
  36   20   39 1
  37   21   22 ar
  38   21   40 1
  39   22   41 1
  40   24   27 1
  41   25   26 1
  42   26   30 1
  43   26   31 2
  44   27   28 1
  45   27   29 2
  46   28   42 1
  47   28   43 1
  48   28   44 1
  49   30   45 1
  50   30   46 1
  51   30   47 1

#	End of record

