#	Name: ASD03110033
#	Creating user name:	WinNT
#	Creation time:	15. 06. 2019 20:33

#	Modifying user name:	WinNT
#	Modification time:	15. 06. 2019 20:33

#	Program:	/corina/corina34_cracker 3.40 0067  02.08.2006

@<TRIPOS>MOLECULE
ASD03110033
  57   58    0    0    0
SMALL
NO_CHARGES


@<TRIPOS>ATOM
   1 C1             1.7500     0.3151     0.8639 C.3     
   2 C2             0.8137    -0.6930     0.1905 C.3     
   3 C3             0.4780    -1.8064     1.1874 C.3     
   4 C4            -0.1415    -1.1869     2.4428 C.3     
   5 O5             0.7677    -0.2367     3.0019 O.3     
   6 C6             1.0813     0.8527     2.1318 C.3     
   7 O7            -0.3883    -0.0337    -0.2125 O.3     
   8 C8             2.0347     1.8153     2.8427 C.3     
   9 O9             1.3639     2.4186     3.9508 O.3     
  10 O10           -0.4523    -2.7142     0.5939 O.3     
  11 O11           -1.3633    -0.5312     2.0974 O.3     
  12 C12           -2.1925    -0.2190     3.2186 C.3     
  13 C13           -2.9504     1.0819     2.9459 C.3     
  14 C14           -3.1930    -1.3543     3.4448 C.3     
  15 C15           -1.9530     2.2339     2.8085 C.3     
  16 C16           -2.7143     3.5543     2.6742 C.3     
  17 C17           -1.7230     4.6904     2.4143 C.3     
  18 C18           -2.4403    -2.6811     3.5949 C.3     
  19 O19           -4.0720    -1.4522     2.3180 O.3     
  20 C20           -4.9492    -2.4792     2.3318 C.2     
  21 C21           -4.6273    -3.6763     3.0144 C.2     
  22 C22           -3.4403    -3.8099     3.6326 C.2     
  23 O23           -6.0167    -2.3749     1.7575 O.2     
  24 O24            2.9778    -0.3297     1.2083 O.3     
  25 C25            3.9717    -0.2727     0.1831 C.3     
  26 O26           -3.1447    -4.9513     4.2856 O.3     
  27 C27           -4.1549    -5.9943     4.2804 C.3     
  28 H28            1.9508     1.1393     0.1795 H       
  29 H29            1.3064    -1.1214    -0.6824 H       
  30 H30            1.3888    -2.3418     1.4558 H       
  31 H31           -0.3432    -1.9704     3.1733 H       
  32 H32            0.1653     1.3795     1.8643 H       
  33 H33           -1.0284    -0.6138    -0.6471 H       
  34 H34            2.9056     1.2660     3.2004 H       
  35 H35            2.3548     2.5901     2.1461 H       
  36 H36            1.9308     2.9833     4.4938 H       
  37 H37           -0.7099    -3.4464     1.1707 H       
  38 H38           -1.5724    -0.0988     4.1069 H       
  39 H39           -3.5210     0.9832     2.0224 H       
  40 H40           -3.6302     1.2865     3.7729 H       
  41 H41           -3.7716    -1.1576     4.3474 H       
  42 H42           -1.3159     2.2702     3.6922 H       
  43 H43           -1.3373     2.0778     1.9227 H       
  44 H44           -3.4154     3.4864     1.8424 H       
  45 H45           -3.2618     3.7534     3.5955 H       
  46 H46           -1.0780     4.8158     3.2840 H       
  47 H47           -1.1148     4.4496     1.5425 H       
  48 H48           -2.2702     5.6152     2.2314 H       
  49 H49           -1.7681    -2.8172     2.7477 H       
  50 H50           -1.8655    -2.6717     4.5210 H       
  51 H51           -5.3396    -4.4877     3.0393 H       
  52 H52            3.5943    -0.7591    -0.7163 H       
  53 H53            4.2063     0.7685    -0.0381 H       
  54 H54            4.8728    -0.7840     0.5218 H       
  55 H55           -5.0669    -5.6191     4.7446 H       
  56 H56           -4.3656    -6.2909     3.2529 H       
  57 H57           -3.7904    -6.8559     4.8398 H       
@<TRIPOS>BOND
   1    1    2 1
   2    1   24 1
   3    1    6 1
   4    1   28 1
   5    2    3 1
   6    2    7 1
   7    2   29 1
   8    3   10 1
   9    3    4 1
  10    3   30 1
  11    4    5 1
  12    4   11 1
  13    4   31 1
  14    5    6 1
  15    6    8 1
  16    6   32 1
  17    7   33 1
  18    8    9 1
  19    8   34 1
  20    8   35 1
  21    9   36 1
  22   10   37 1
  23   11   12 1
  24   12   13 1
  25   12   14 1
  26   12   38 1
  27   13   15 1
  28   13   39 1
  29   13   40 1
  30   14   18 1
  31   14   19 1
  32   14   41 1
  33   15   16 1
  34   15   42 1
  35   15   43 1
  36   16   17 1
  37   16   44 1
  38   16   45 1
  39   17   46 1
  40   17   47 1
  41   17   48 1
  42   18   22 1
  43   18   49 1
  44   18   50 1
  45   19   20 1
  46   20   21 1
  47   20   23 2
  48   21   22 2
  49   21   51 1
  50   22   26 1
  51   24   25 1
  52   25   52 1
  53   25   53 1
  54   25   54 1
  55   26   27 1
  56   27   55 1
  57   27   56 1
  58   27   57 1

#	End of record

