#	Name: ASD05430236
#	Creating user name:	WinNT
#	Creation time:	15. 06. 2019 21:00

#	Modifying user name:	WinNT
#	Modification time:	15. 06. 2019 21:00

#	Program:	/corina/corina34_cracker 3.40 0067  02.08.2006

@<TRIPOS>MOLECULE
ASD05430236
  63   70    0    0    0
SMALL
NO_CHARGES


@<TRIPOS>ATOM
   1 C1            -0.0168     1.3891     0.0097 C.ar    
   2 C2             0.0021    -0.0041     0.0020 C.ar    
   3 C3             1.2129    -0.6803    -0.0132 C.ar    
   4 C4             2.3976     0.0290    -0.0207 C.ar    
   5 C5             2.3770     1.4103    -0.0126 C.ar    
   6 C6             1.1673     2.0911     0.0021 C.ar    
   7 C7             5.3088     3.4308     1.4026 C.3     
   8 C8             4.0596     2.5413     1.4152 C.3     
   9 C9             3.6721     2.1807    -0.0203 C.3     
  10 C10            5.8576     3.5425     2.8284 C.3     
  11 C11            6.3579     2.2237     3.4321 C.3     
  12 N12            5.3526     1.1949     3.1609 N.pl3   
  13 C13            4.3694     1.2788     2.1894 C.2     
  14 N14            3.7844     0.1405     2.0429 N.2     
  15 C15            4.5221     0.0478     5.1702 C.ar    
  16 C16            5.3773    -0.5230     6.1196 C.ar    
  17 C17            3.3110     0.6134     5.5263 C.ar    
  18 C18            2.9704     0.5936     6.8727 C.ar    
  19 C19            3.8065     0.0320     7.8187 C.ar    
  20 C20            5.0231    -0.5380     7.4717 C.ar    
  21 F21            3.4293     0.0378     9.1160 F       
  22 N22           -1.2025    -0.7221     0.0101 N.pl3   
  23 C23           -1.5481    -1.7436    -0.8365 C.2     
  24 C24           -2.7829    -2.1449    -0.4797 C.2     
  25 N25           -3.1849    -1.3928     0.5555 N.2     
  26 C26           -2.2448    -0.5409     0.8620 C.2     
  27 C27           -3.5763    -3.2481    -1.1312 C.3     
  28 C28            5.1598    -0.0868     3.8283 C.3     
  29 O29            4.3462    -0.8321     2.9141 O.3     
  30 N30            6.5291    -1.0246     5.5368 N.pl3   
  31 C31            6.4933    -0.7982     4.0830 C.3     
  32 C32            6.5954     4.8240     3.2107 C.3     
  33 C33            5.1975     4.5485     3.7694 C.3     
  34 C34            0.4629     3.4218     0.0161 C.3     
  35 C35           -0.8467     2.6452     0.0190 C.3     
  36 H36            1.2292    -1.7602    -0.0188 H       
  37 H37            3.3410    -0.4965    -0.0325 H       
  38 H38            6.0651     2.9880     0.7545 H       
  39 H39            5.0464     4.4225     1.0342 H       
  40 H40            3.2370     3.0732     1.8932 H       
  41 H41            4.4564     1.5684    -0.4655 H       
  42 H42            3.5486     3.0933    -0.6034 H       
  43 H43            7.3056     1.9436     2.9723 H       
  44 H44            6.4886     2.3370     4.5083 H       
  45 H45            2.6571     1.0528     4.7876 H       
  46 H46            2.0322     1.0266     7.1869 H       
  47 H47            5.6711    -0.9751     8.2170 H       
  48 H48           -0.9458    -2.1482    -1.6365 H       
  49 H49           -2.2908     0.1904     1.6554 H       
  50 H50           -3.3580    -4.1941    -0.6357 H       
  51 H51           -4.6407    -3.0299    -1.0449 H       
  52 H52           -3.3040    -3.3183    -2.1844 H       
  53 H53            7.2517    -1.4603     6.0154 H       
  54 H54            6.5238    -1.7486     3.5503 H       
  55 H55            7.3257    -0.1643     3.7773 H       
  56 H56            7.4382     4.7342     3.8962 H       
  57 H57            6.6895     5.5973     2.4484 H       
  58 H58            4.3719     5.1406     3.3745 H       
  59 H59            5.1206     4.2774     4.8224 H       
  60 H60            0.6343     3.9966     0.9262 H       
  61 H61            0.6180     4.0070    -0.8904 H       
  62 H62           -1.4397     2.7865    -0.8845 H       
  63 H63           -1.4280     2.7737     0.9321 H       
@<TRIPOS>BOND
   1    1    2 ar
   2    1    6 ar
   3    1   35 1
   4    2    3 ar
   5    2   22 1
   6    3    4 ar
   7    3   36 1
   8    4    5 ar
   9    4   37 1
  10    5    6 ar
  11    5    9 1
  12    6   34 1
  13    7    8 1
  14    7   10 1
  15    7   38 1
  16    7   39 1
  17    8    9 1
  18    8   13 1
  19    8   40 1
  20    9   41 1
  21    9   42 1
  22   10   11 1
  23   10   32 1
  24   10   33 1
  25   11   12 1
  26   11   43 1
  27   11   44 1
  28   12   13 1
  29   12   28 1
  30   13   14 2
  31   14   29 1
  32   15   16 ar
  33   15   17 ar
  34   15   28 1
  35   16   30 1
  36   16   20 ar
  37   17   18 ar
  38   17   45 1
  39   18   19 ar
  40   18   46 1
  41   19   20 ar
  42   19   21 1
  43   20   47 1
  44   22   23 1
  45   22   26 1
  46   23   24 2
  47   23   48 1
  48   24   25 1
  49   24   27 1
  50   25   26 2
  51   26   49 1
  52   27   50 1
  53   27   51 1
  54   27   52 1
  55   28   29 1
  56   28   31 1
  57   30   31 1
  58   30   53 1
  59   31   54 1
  60   31   55 1
  61   32   33 1
  62   32   56 1
  63   32   57 1
  64   33   58 1
  65   33   59 1
  66   34   35 1
  67   34   60 1
  68   34   61 1
  69   35   62 1
  70   35   63 1

#	End of record

