#	Name: ASD01910043
#	Creating user name:	WinNT
#	Creation time:	15. 06. 2019 19:55

#	Modifying user name:	WinNT
#	Modification time:	15. 06. 2019 19:55

#	Program:	/corina/corina34_cracker 3.40 0067  02.08.2006

@<TRIPOS>MOLECULE
ASD01910043
  43   46    0    0    0
SMALL
NO_CHARGES


@<TRIPOS>ATOM
   1 C1             0.4477     1.3700    -0.8899 C.ar    
   2 C2             0.4634    -0.0110    -0.8676 C.ar    
   3 C3             1.2000    -0.6812     0.0921 C.ar    
   4 C4             1.9230     0.0279     1.0332 C.ar    
   5 C5             1.9119     1.4111     1.0170 C.ar    
   6 C6             1.1724     2.0867     0.0526 C.ar    
   7 N7             1.1587     3.4881     0.0321 N.pl3   
   8 C8             0.0531     4.2764    -0.0724 C.2     
   9 C9             0.4663     5.5711    -0.0553 C.2     
  10 C10            1.8688     5.5738     0.0634 C.2     
  11 N11            2.2790     4.3238     0.1216 N.2     
  12 N12           -1.2646     3.8350    -0.1784 N.am    
  13 C13           -2.2774     4.7238    -0.1500 C.2     
  14 C14           -3.6748     4.2557    -0.2623 C.ar    
  15 C15           -4.7261     5.1737    -0.2333 C.ar    
  16 C16           -6.0281     4.7301    -0.3391 C.ar    
  17 C17           -6.2931     3.3788    -0.4738 C.ar    
  18 C18           -5.2557     2.4636    -0.5028 C.ar    
  19 C19           -3.9489     2.8943    -0.4038 C.ar    
  20 C20            2.7349     6.7773     0.1202 C.ar    
  21 C21            4.1164     6.6397     0.2391 C.ar    
  22 C22            4.9173     7.7625     0.2910 C.ar    
  23 C23            4.3509     9.0228     0.2256 C.ar    
  24 C24            2.9801     9.1652     0.1075 C.ar    
  25 C25            2.1702     8.0492     0.0490 C.ar    
  26 O26           -2.0414     5.9106    -0.0320 O.2     
  27 F27            2.6181     2.1043     1.9368 F       
  28 H28           -0.1244     1.8918    -1.6427 H       
  29 H29           -0.1007    -0.5685    -1.6007 H       
  30 H30            1.2100    -1.7610     0.1066 H       
  31 H31            2.4966    -0.4984     1.7818 H       
  32 H32           -0.1683     6.4425    -0.1216 H       
  33 H33           -1.4528     2.8881    -0.2725 H       
  34 H34           -4.5206     6.2287    -0.1278 H       
  35 H35           -6.8424     5.4392    -0.3164 H       
  36 H36           -7.3142     3.0368    -0.5562 H       
  37 H37           -5.4694     1.4102    -0.6078 H       
  38 H38           -3.1401     2.1790    -0.4269 H       
  39 H39            4.5596     5.6562     0.2910 H       
  40 H40            5.9882     7.6570     0.3832 H       
  41 H41            4.9812     9.8987     0.2673 H       
  42 H42            2.5431    10.1516     0.0569 H       
  43 H43            1.1000     8.1616    -0.0432 H       
@<TRIPOS>BOND
   1    1    2 ar
   2    1    6 ar
   3    1   28 1
   4    2    3 ar
   5    2   29 1
   6    3    4 ar
   7    3   30 1
   8    4    5 ar
   9    4   31 1
  10    5    6 ar
  11    5   27 1
  12    6    7 1
  13    7    8 1
  14    7   11 1
  15    8    9 2
  16    8   12 1
  17    9   10 1
  18    9   32 1
  19   10   11 2
  20   10   20 1
  21   12   13 am
  22   12   33 1
  23   13   14 1
  24   13   26 2
  25   14   15 ar
  26   14   19 ar
  27   15   16 ar
  28   15   34 1
  29   16   17 ar
  30   16   35 1
  31   17   18 ar
  32   17   36 1
  33   18   19 ar
  34   18   37 1
  35   19   38 1
  36   20   21 ar
  37   20   25 ar
  38   21   22 ar
  39   21   39 1
  40   22   23 ar
  41   22   40 1
  42   23   24 ar
  43   23   41 1
  44   24   25 ar
  45   24   42 1
  46   25   43 1

#	End of record

