#	Name: ASD01190042
#	Creating user name:	WinNT
#	Creation time:	15. 06. 2019 19:07

#	Modifying user name:	WinNT
#	Modification time:	15. 06. 2019 19:07

#	Program:	/corina/corina34_cracker 3.40 0067  02.08.2006

@<TRIPOS>MOLECULE
ASD01190042
  54   58    0    0    0
SMALL
NO_CHARGES


@<TRIPOS>ATOM
   1 C1             0.0317     1.5632    -0.2799 C.2     
   2 O2            -0.0144     0.3537    -0.3462 O.2     
   3 N3             1.2226     2.1887    -0.1972 N.am    
   4 N4             1.4098     3.5724    -0.1153 N.2     
   5 C5             2.6791     3.8496    -0.0475 C.2     
   6 C6             3.4175     2.5882    -0.0842 C.ar    
   7 C7             4.7752     2.2577    -0.0449 C.ar    
   8 C8             5.1560     0.9474    -0.0988 C.ar    
   9 C9             4.2063    -0.0615    -0.1924 C.ar    
  10 C10            2.8631     0.2410    -0.2327 C.ar    
  11 C11            2.4528     1.5681    -0.1736 C.ar    
  12 C12            6.6202     0.5930    -0.0568 C.3     
  13 C13            7.2889     1.0323    -1.3609 C.3     
  14 N14            8.6224     2.5950     2.2969 N.pl3   
  15 C15            8.2985     2.1612     1.0403 C.2     
  16 C16            7.2741     1.2962     1.1047 C.2     
  17 C17            6.9123     1.1653     2.5181 C.ar    
  18 C18            5.9473     0.4296     3.2089 C.ar    
  19 C19            5.8636     0.5291     4.5690 C.ar    
  20 C20            6.7306     1.3561     5.2703 C.ar    
  21 C21            7.6897     2.0910     4.6088 C.ar    
  22 C22            7.7932     2.0047     3.2241 C.ar    
  23 C23            9.6957     3.5418     2.6099 C.3     
  24 O24            6.7639    -0.8201     0.0997 O.3     
  25 F25            7.1481     2.4158    -1.5142 F       
  26 F26            8.6481     0.7033    -1.3219 F       
  27 F27            6.6818     0.3796    -2.4392 F       
  28 C28           -1.2425     2.3678    -0.2963 C.3     
  29 C29           -2.3569     1.5760    -1.0024 C.3     
  30 C30           -3.4798     1.3741     0.0359 C.3     
  31 C31           -3.2701     2.5252     1.0508 C.3     
  32 C32           -1.7270     2.6196     1.1465 C.3     
  33 H33            3.1110     4.8370     0.0231 H       
  34 H34            5.5205     3.0360     0.0275 H       
  35 H35            4.5239    -1.0928    -0.2345 H       
  36 H36            2.1313    -0.5500    -0.3059 H       
  37 H37            8.7936     2.4694     0.1312 H       
  38 H38            5.2692    -0.2155     2.6700 H       
  39 H39            5.1168    -0.0399     5.1028 H       
  40 H40            6.6521     1.4241     6.3453 H       
  41 H41            8.3593     2.7317     5.1633 H       
  42 H42            9.3016     4.5578     2.5883 H       
  43 H43           10.0920     3.3267     3.6022 H       
  44 H44           10.4920     3.4452     1.8719 H       
  45 H45            6.3626    -1.1692     0.9072 H       
  46 H46           -1.0779     3.3168    -0.8066 H       
  47 H47           -2.7338     2.1410    -1.8549 H       
  48 H48           -1.9762     0.6097    -1.3333 H       
  49 H49           -4.4576     1.4574    -0.4386 H       
  50 H50           -3.3748     0.4074     0.5284 H       
  51 H51           -3.6913     3.4562     0.6715 H       
  52 H52           -3.7022     2.2705     2.0186 H       
  53 H53           -1.3389     1.8540     1.8183 H       
  54 H54           -1.4256     3.6117     1.4825 H       
@<TRIPOS>BOND
   1    1    2 2
   2    1    3 am
   3    1   28 1
   4    3    4 1
   5    3   11 1
   6    4    5 2
   7    5    6 1
   8    5   33 1
   9    6    7 ar
  10    6   11 ar
  11    7    8 ar
  12    7   34 1
  13    8    9 ar
  14    8   12 1
  15    9   10 ar
  16    9   35 1
  17   10   11 ar
  18   10   36 1
  19   12   13 1
  20   12   16 1
  21   12   24 1
  22   13   25 1
  23   13   26 1
  24   13   27 1
  25   14   15 1
  26   14   22 1
  27   14   23 1
  28   15   16 2
  29   15   37 1
  30   16   17 1
  31   17   18 ar
  32   17   22 ar
  33   18   19 ar
  34   18   38 1
  35   19   20 ar
  36   19   39 1
  37   20   21 ar
  38   20   40 1
  39   21   22 ar
  40   21   41 1
  41   23   42 1
  42   23   43 1
  43   23   44 1
  44   24   45 1
  45   28   29 1
  46   28   32 1
  47   28   46 1
  48   29   30 1
  49   29   47 1
  50   29   48 1
  51   30   31 1
  52   30   49 1
  53   30   50 1
  54   31   32 1
  55   31   51 1
  56   31   52 1
  57   32   53 1
  58   32   54 1

#	End of record

