#	Name: ASD00843665
#	Creating user name:	WinNT
#	Creation time:	15. 06. 2019 18:47

#	Modifying user name:	WinNT
#	Modification time:	15. 06. 2019 18:47

#	Program:	/corina/corina34_cracker 3.40 0067  02.08.2006

@<TRIPOS>MOLECULE
ASD00843665
  85   90    0    0    0
SMALL
NO_CHARGES


@<TRIPOS>ATOM
   1 F1             5.6885    -2.5251    -1.9535 F       
   2 N2             0.9327     1.0796    -0.2964 N.ar    
   3 C3             1.0958    -0.2053    -0.5636 C.ar    
   4 C4             0.9416    -1.1607     0.4331 C.ar    
   5 C5             0.6141    -0.7508     1.7136 C.ar    
   6 C6             0.4517     0.6070     1.9530 C.ar    
   7 C7             0.6204     1.5008     0.9146 C.ar    
   8 C8             1.1279    -2.6238     0.1238 C.3     
   9 C9             0.7686    -3.4700     1.3265 C.2     
  10 C10            0.2828    -3.0262    -1.0864 C.3     
  11 C11           -1.1562    -2.6517    -0.8412 C.2     
  12 N12           -2.1060    -3.0087    -1.7282 N.am    
  13 O13           -1.4595    -2.0291     0.1544 O.2     
  14 C14           -3.4940    -2.5565    -1.5615 C.3     
  15 C15           -4.4173    -3.7786    -1.5883 C.3     
  16 C16           -4.1656    -4.5752    -2.8706 C.3     
  17 C17           -2.7157    -5.0646    -2.8927 C.3     
  18 C18           -1.7720    -3.8525    -2.8838 C.3     
  19 C19           -5.1103    -5.7777    -2.9174 C.3     
  20 C20           -6.5614    -5.2895    -2.8970 C.3     
  21 C21           -7.5009    -6.4927    -3.0054 C.3     
  22 N22           -7.2272    -7.2183    -4.2524 N.3     
  23 C23           -5.8537    -7.7374    -4.2742 C.3     
  24 C24           -4.8651    -6.5713    -4.2037 C.3     
  25 H25           -7.8964    -7.9601    -4.3935 H       
  26 O26           -0.3158    -3.5310     1.8663 O.2     
  27 N27            1.8766    -4.1411     1.6835 N.am    
  28 C28            2.5875    -2.9317    -0.1200 C.ar    
  29 C29            2.9618    -3.8478     0.8550 C.ar    
  30 C30            3.4931    -2.4883    -1.0576 C.ar    
  31 C31            4.7967    -2.9572    -1.0351 C.ar    
  32 C32            5.1826    -3.8718    -0.0669 C.ar    
  33 C33            4.2735    -4.3164     0.8737 C.ar    
  34 F34            6.4532    -4.3302    -0.0433 F       
  35 C35            1.5325    -6.7913     2.3410 C.ar    
  36 C36            0.2594    -7.0354     1.8474 C.ar    
  37 C37            2.4769    -7.7998     2.3421 C.ar    
  38 C38            2.1540    -9.0513     1.8514 C.ar    
  39 C39            0.8855    -9.2972     1.3587 C.ar    
  40 C40           -0.0623    -8.2925     1.3559 C.ar    
  41 H41            0.6356   -10.2757     0.9759 H       
  42 O42           -0.6714    -6.0452     1.8457 O.3     
  43 C43           -1.9613    -6.3683     1.3224 C.3     
  44 O44            1.4163    -0.5942    -1.8233 O.3     
  45 C45            1.5133     0.4311    -2.8139 C.3     
  46 C46            1.9822    -0.1798    -4.1360 C.3     
  47 F47            3.1938    -0.8499    -3.9363 F       
  48 F48            1.0201    -1.0837    -4.5991 F       
  49 S49            1.9472    -5.1944     2.9594 S.o2    
  50 O50            3.3114    -5.2580     3.3522 O.2     
  51 O51            0.9000    -4.8226     3.8450 O.2     
  52 H52            0.4875    -1.4709     2.5085 H       
  53 H53            0.1958     0.9602     2.9410 H       
  54 H54            0.4955     2.5581     1.0957 H       
  55 H55            0.6473    -2.5072    -1.9729 H       
  56 H56            0.3570    -4.1029    -1.2396 H       
  57 H57           -3.5980    -2.0408    -0.6068 H       
  58 H58           -3.7584    -1.8809    -2.3749 H       
  59 H59           -4.2124    -4.4085    -0.7226 H       
  60 H60           -5.4563    -3.4502    -1.5620 H       
  61 H61           -4.3468    -3.9374    -3.7357 H       
  62 H62           -2.5268    -5.6824    -2.0148 H       
  63 H63           -2.5436    -5.6515    -3.7950 H       
  64 H64           -1.8974    -3.2849    -3.8058 H       
  65 H65           -0.7401    -4.1934    -2.7996 H       
  66 H66           -4.9290    -6.4172    -2.0535 H       
  67 H67           -6.7542    -4.7602    -1.9638 H       
  68 H68           -6.7314    -4.6181    -3.7387 H       
  69 H69           -7.3401    -7.1568    -2.1561 H       
  70 H70           -8.5347    -6.1474    -3.0055 H       
  71 H71           -5.7006    -8.3956    -3.4190 H       
  72 H72           -5.6912    -8.2961    -5.1959 H       
  73 H73           -5.0083    -5.9201    -5.0660 H       
  74 H74           -3.8459    -6.9578    -4.2041 H       
  75 H75            3.1875    -1.7762    -1.8098 H       
  76 H76            4.5805    -5.0286     1.6253 H       
  77 H77            3.4683    -7.6103     2.7263 H       
  78 H78            2.8938    -9.8381     1.8524 H       
  79 H79           -1.0531    -8.4852     0.9717 H       
  80 H80           -1.8638    -6.6804     0.2826 H       
  81 H81           -2.3974    -7.1792     1.9057 H       
  82 H82           -2.6066    -5.4917     1.3796 H       
  83 H83            0.5368     0.8947    -2.9539 H       
  84 H84            2.2299     1.1849    -2.4876 H       
  85 H85            2.1217     0.6115    -4.8726 H       
@<TRIPOS>BOND
   1    1   31 1
   2    2    3 ar
   3    2    7 ar
   4    3    4 ar
   5    3   44 1
   6    4    5 ar
   7    4    8 1
   8    5    6 ar
   9    5   52 1
  10    6    7 ar
  11    6   53 1
  12    7   54 1
  13    8    9 1
  14    8   10 1
  15    8   28 1
  16    9   26 2
  17    9   27 am
  18   10   11 1
  19   10   55 1
  20   10   56 1
  21   11   12 am
  22   11   13 2
  23   12   14 1
  24   12   18 1
  25   14   15 1
  26   14   57 1
  27   14   58 1
  28   15   16 1
  29   15   59 1
  30   15   60 1
  31   16   17 1
  32   16   19 1
  33   16   61 1
  34   17   18 1
  35   17   62 1
  36   17   63 1
  37   18   64 1
  38   18   65 1
  39   19   20 1
  40   19   24 1
  41   19   66 1
  42   20   21 1
  43   20   67 1
  44   20   68 1
  45   21   22 1
  46   21   69 1
  47   21   70 1
  48   22   23 1
  49   22   25 1
  50   23   24 1
  51   23   71 1
  52   23   72 1
  53   24   73 1
  54   24   74 1
  55   27   49 am
  56   27   29 1
  57   28   29 ar
  58   28   30 ar
  59   29   33 ar
  60   30   31 ar
  61   30   75 1
  62   31   32 ar
  63   32   33 ar
  64   32   34 1
  65   33   76 1
  66   35   36 ar
  67   35   37 ar
  68   35   49 1
  69   36   42 1
  70   36   40 ar
  71   37   38 ar
  72   37   77 1
  73   38   39 ar
  74   38   78 1
  75   39   40 ar
  76   39   41 1
  77   40   79 1
  78   42   43 1
  79   43   80 1
  80   43   81 1
  81   43   82 1
  82   44   45 1
  83   45   46 1
  84   45   83 1
  85   45   84 1
  86   46   47 1
  87   46   48 1
  88   46   85 1
  89   49   50 2
  90   49   51 2

#	End of record

