#	Name: ASD01150916
#	Creating user name:	WinNT
#	Creation time:	15. 06. 2019 19:05

#	Modifying user name:	WinNT
#	Modification time:	15. 06. 2019 19:05

#	Program:	/corina/corina34_cracker 3.40 0067  02.08.2006

@<TRIPOS>MOLECULE
ASD01150916
  50   52    0    0    0
SMALL
NO_CHARGES


@<TRIPOS>ATOM
   1 C1            -0.0180     1.4744     0.0101 C.ar    
   2 C2             0.0021    -0.0041     0.0020 C.2     
   3 N3            -1.1558    -0.6938     0.0094 N.am    
   4 O4             1.0628    -0.5974    -0.0113 O.2     
   5 C5            -1.1370    -2.0835     0.0017 C.2     
   6 N6            -0.0478    -2.8558    -0.0124 N.2     
   7 C7            -0.3959    -4.1264    -0.0155 C.2     
   8 N8            -1.7506    -4.2218    -0.0034 N.pl3   
   9 C9            -2.2479    -2.9177     0.0135 C.2     
  10 C10           -3.6020    -2.5266     0.0305 C.2     
  11 O11           -4.5753    -3.4629     0.0317 O.3     
  12 O12           -3.8942    -1.3444     0.0442 O.2     
  13 C13           -5.9255    -2.9951     0.0494 C.3     
  14 C14           -6.8796    -4.1911     0.0480 C.3     
  15 S15            0.7213    -5.4888    -0.0338 S.3     
  16 C16            2.2988    -4.6015    -0.0440 C.3     
  17 C17           -2.5387    -5.4568    -0.0023 C.3     
  18 C18           -2.7962    -5.8871     1.4188 C.ar    
  19 C19           -3.9234    -5.4405     2.0828 C.ar    
  20 C20           -4.1595    -5.8352     3.3864 C.ar    
  21 C21           -3.2687    -6.6769     4.0258 C.ar    
  22 C22           -2.1420    -7.1242     3.3616 C.ar    
  23 C23           -1.9081    -6.7330     2.0565 C.ar    
  24 C24            1.1819     2.1889     0.0025 C.ar    
  25 C25            1.1633     3.5660     0.0101 C.ar    
  26 C26           -0.0556     4.2479     0.0254 C.ar    
  27 C27           -1.2556     3.5330     0.0330 C.ar    
  28 C28           -1.2368     2.1560     0.0196 C.ar    
  29 C29           -0.0750     5.6798     0.0338 C.1     
  30 N30           -0.0904     6.8156     0.0404 N.1     
  31 H31           -2.0023    -0.2203     0.0200 H       
  32 H32           -6.0916    -2.3987     0.9465 H       
  33 H33           -6.1093    -2.3825    -0.8333 H       
  34 H34           -6.7135    -4.7874    -0.8492 H       
  35 H35           -6.6958    -4.8036     0.9306 H       
  36 H36           -7.9095    -3.8342     0.0615 H       
  37 H37            2.3551    -3.9707    -0.9312 H       
  38 H38            2.3722    -3.9805     0.8487 H       
  39 H39            3.1192    -5.3191    -0.0559 H       
  40 H40           -3.4889    -5.2818    -0.5068 H       
  41 H41           -1.9886    -6.2393    -0.5249 H       
  42 H42           -4.6193    -4.7829     1.5832 H       
  43 H43           -5.0398    -5.4857     3.9054 H       
  44 H44           -3.4529    -6.9847     5.0445 H       
  45 H45           -1.4459    -7.7816     3.8613 H       
  46 H46           -1.0278    -7.0825     1.5375 H       
  47 H47            2.1243     1.6617    -0.0089 H       
  48 H48            2.0913     4.1186     0.0046 H       
  49 H49           -2.1981     4.0602     0.0452 H       
  50 H50           -2.1646     1.6033     0.0252 H       
@<TRIPOS>BOND
   1    1    2 1
   2    1   24 ar
   3    1   28 ar
   4    2    3 am
   5    2    4 2
   6    3    5 1
   7    3   31 1
   8    5    6 1
   9    5    9 2
  10    6    7 2
  11    7    8 1
  12    7   15 1
  13    8    9 1
  14    8   17 1
  15    9   10 1
  16   10   11 1
  17   10   12 2
  18   11   13 1
  19   13   14 1
  20   13   32 1
  21   13   33 1
  22   14   34 1
  23   14   35 1
  24   14   36 1
  25   15   16 1
  26   16   37 1
  27   16   38 1
  28   16   39 1
  29   17   18 1
  30   17   40 1
  31   17   41 1
  32   18   19 ar
  33   18   23 ar
  34   19   20 ar
  35   19   42 1
  36   20   21 ar
  37   20   43 1
  38   21   22 ar
  39   21   44 1
  40   22   23 ar
  41   22   45 1
  42   23   46 1
  43   24   25 ar
  44   24   47 1
  45   25   26 ar
  46   25   48 1
  47   26   27 ar
  48   26   29 1
  49   27   28 ar
  50   27   49 1
  51   28   50 1
  52   29   30 3

#	End of record

