#	Name: ASD01890372
#	Creating user name:	WinNT
#	Creation time:	15. 06. 2019 19:50

#	Modifying user name:	WinNT
#	Modification time:	15. 06. 2019 19:50

#	Program:	/corina/corina34_cracker 3.40 0067  02.08.2006

@<TRIPOS>MOLECULE
ASD01890372
  44   45    0    0    0
SMALL
NO_CHARGES


@<TRIPOS>ATOM
   1 C1             0.1766     1.5130     0.1128 C.2     
   2 C2             0.1157     0.0099     0.0234 C.3     
   3 C3             1.5352    -0.5604     0.0483 C.3     
   4 O4             1.2457     2.0709     0.1886 O.2     
   5 O5            -0.9565     2.2324     0.1026 O.3     
   6 C6             1.4962    -2.6265    -1.2429 C.2     
   7 C7             1.5614    -4.1295    -1.3302 C.3     
   8 O8             1.4619    -1.9611    -2.2563 O.2     
   9 N9             1.4760    -2.0216    -0.0386 N.am    
  10 C10            1.3985    -2.7893     1.1287 C.ar    
  11 C11            2.4651    -2.8137     2.0176 C.ar    
  12 C12            2.3854    -3.5725     3.1689 C.ar    
  13 C13            1.2451    -4.3075     3.4368 C.ar    
  14 C14            0.1815    -4.2857     2.5534 C.ar    
  15 C15            0.2525    -3.5240     1.4035 C.ar    
  16 C16            1.4560    -4.5540    -2.7723 C.ar    
  17 C17            2.5882    -4.5912    -3.5670 C.ar    
  18 C18            2.4913    -4.9808    -4.8906 C.ar    
  19 C19            1.2622    -5.3331    -5.4191 C.ar    
  20 C20            0.1310    -5.2955    -4.6237 C.ar    
  21 C21            0.2294    -4.9115    -3.2993 C.ar    
  22 Cl22           1.1394    -5.8217    -7.0804 Cl      
  23 Cl23           4.1299    -4.1483    -2.9031 Cl      
  24 C24           -0.8221     3.6754     0.1919 C.3     
  25 C25           -2.2096     4.3195     0.1657 C.3     
  26 H26           -0.4481    -0.3818     0.8700 H       
  27 H27           -0.3758    -0.2792    -0.9055 H       
  28 H28            2.0991    -0.1686    -0.7983 H       
  29 H29            2.0267    -0.2713     0.9772 H       
  30 H30            2.5087    -4.4767    -0.9176 H       
  31 H31            0.7376    -4.5625    -0.7628 H       
  32 H32            3.3561    -2.2402     1.8088 H       
  33 H33            3.2147    -3.5922     3.8604 H       
  34 H34            1.1853    -4.9000     4.3377 H       
  35 H35           -0.7076    -4.8610     2.7653 H       
  36 H36           -0.5805    -3.5036     0.7163 H       
  37 H37            3.3746    -5.0096    -5.5113 H       
  38 H38           -0.8285    -5.5702    -5.0363 H       
  39 H39           -0.6532    -4.8869    -2.6774 H       
  40 H40           -0.3178     3.9365     1.1223 H       
  41 H41           -0.2369     4.0388    -0.6529 H       
  42 H42           -2.7139     4.0585    -0.7647 H       
  43 H43           -2.7948     3.9562     1.0105 H       
  44 H44           -2.1087     5.4028     0.2327 H       
@<TRIPOS>BOND
   1    1    2 1
   2    1    4 2
   3    1    5 1
   4    2    3 1
   5    2   26 1
   6    2   27 1
   7    3    9 1
   8    3   28 1
   9    3   29 1
  10    5   24 1
  11    6    7 1
  12    6    8 2
  13    6    9 am
  14    7   16 1
  15    7   30 1
  16    7   31 1
  17    9   10 1
  18   10   11 ar
  19   10   15 ar
  20   11   12 ar
  21   11   32 1
  22   12   13 ar
  23   12   33 1
  24   13   14 ar
  25   13   34 1
  26   14   15 ar
  27   14   35 1
  28   15   36 1
  29   16   17 ar
  30   16   21 ar
  31   17   18 ar
  32   17   23 1
  33   18   19 ar
  34   18   37 1
  35   19   20 ar
  36   19   22 1
  37   20   21 ar
  38   20   38 1
  39   21   39 1
  40   24   25 1
  41   24   40 1
  42   24   41 1
  43   25   42 1
  44   25   43 1
  45   25   44 1

#	End of record

