#	Name: ASD01840195
#	Creating user name:	WinNT
#	Creation time:	15. 06. 2019 19:37

#	Modifying user name:	WinNT
#	Modification time:	15. 06. 2019 19:37

#	Program:	/corina/corina34_cracker 3.40 0067  02.08.2006

@<TRIPOS>MOLECULE
ASD01840195
  38   40    0    0    0
SMALL
NO_CHARGES


@<TRIPOS>ATOM
   1 C1            -0.1662     1.0977     0.2339 C.ar    
   2 C2            -0.1064    -0.2725     0.1046 C.ar    
   3 N3             1.0636    -0.8866     0.0640 N.ar    
   4 N4             2.1766    -0.2578     0.1407 N.ar    
   5 C5             1.0512     1.8108     0.3203 C.ar    
   6 C6             2.6089     3.5674     0.5102 C.2     
   7 C7             1.2953     3.2346     0.4589 C.2     
   8 C8             2.2394     1.0697     0.2679 C.ar    
   9 S9             3.6252     2.1444     0.3906 S.3     
  10 N10            0.2745     4.1728     0.5318 N.pl3   
  11 C11            3.1114     4.9337     0.6466 C.2     
  12 N12            4.4390     5.1625     0.6883 N.am    
  13 O13            2.3306     5.8648     0.7224 O.2     
  14 C14            4.9424     6.5314     0.8249 C.3     
  15 C15            6.4492     6.5128     0.8460 C.ar    
  16 C16            7.1570     6.4076    -0.3395 C.ar    
  17 C17            8.5410     6.3904    -0.3200 C.ar    
  18 C18            9.2164     6.4786     0.8825 C.ar    
  19 C19            8.5088     6.5842     2.0676 C.ar    
  20 C20            7.1244     6.6063     2.0478 C.ar    
  21 C21           -1.4904     1.8159     0.2759 C.3     
  22 C22           -1.3790    -1.0740     0.0095 C.3     
  23 F23            9.1690     6.6705     3.2431 F       
  24 F24            6.4968     6.3213    -1.5150 F       
  25 H25            0.4604     5.1070     0.3482 H       
  26 H26           -0.6245     3.8941     0.7662 H       
  27 H27            5.0611     4.4207     0.6279 H       
  28 H28            4.5983     7.1309    -0.0179 H       
  29 H29            4.5714     6.9640     1.7540 H       
  30 H30            9.0931     6.3077    -1.2446 H       
  31 H31           10.2962     6.4649     0.8977 H       
  32 H32            6.5724     6.6927     2.9720 H       
  33 H33           -1.7784     1.9868     1.3131 H       
  34 H34           -1.4014     2.7725    -0.2389 H       
  35 H35           -2.2493     1.2077    -0.2164 H       
  36 H36           -1.6707    -1.1700    -1.0364 H       
  37 H37           -1.2169    -2.0648     0.4339 H       
  38 H38           -2.1700    -0.5670     0.5621 H       
@<TRIPOS>BOND
   1    1    2 ar
   2    1    5 ar
   3    1   21 1
   4    2    3 ar
   5    2   22 1
   6    3    4 ar
   7    4    8 ar
   8    5    8 ar
   9    5    7 1
  10    6    7 2
  11    6    9 1
  12    6   11 1
  13    7   10 1
  14    8    9 1
  15   10   25 1
  16   10   26 1
  17   11   12 am
  18   11   13 2
  19   12   14 1
  20   12   27 1
  21   14   15 1
  22   14   28 1
  23   14   29 1
  24   15   16 ar
  25   15   20 ar
  26   16   17 ar
  27   16   24 1
  28   17   18 ar
  29   17   30 1
  30   18   19 ar
  31   18   31 1
  32   19   20 ar
  33   19   23 1
  34   20   32 1
  35   21   33 1
  36   21   34 1
  37   21   35 1
  38   22   36 1
  39   22   37 1
  40   22   38 1

#	End of record

