#	Name: ASD01914642
#	Creating user name:	WinNT
#	Creation time:	15. 06. 2019 20:03

#	Modifying user name:	WinNT
#	Modification time:	15. 06. 2019 20:03

#	Program:	/corina/corina34_cracker 3.40 0067  02.08.2006

@<TRIPOS>MOLECULE
ASD01914642
  58   63    0    0    0
SMALL
NO_CHARGES


@<TRIPOS>ATOM
   1 O1            -0.0161     1.3372     0.0094 O.3     
   2 C2             0.0021    -0.0041     0.0020 C.2     
   3 N3             1.2272    -0.4391    -0.0120 N.2     
   4 C4             2.0712     0.6254    -0.0144 C.ar    
   5 C5             1.2626     1.7751    -0.0005 C.ar    
   6 C6             3.4633     0.7527    -0.0270 C.ar    
   7 C7             4.0355     1.9901    -0.0254 C.ar    
   8 C8             3.2369     3.1405    -0.0111 C.ar    
   9 C9             1.8467     3.0281     0.0007 C.ar    
  10 C10            3.8679     4.4751    -0.0085 C.2     
  11 O11            3.1758     5.4747     0.0039 O.2     
  12 N12            5.2110     4.5855    -0.0198 N.am    
  13 C13            5.8372     5.9099    -0.0173 C.3     
  14 C14            7.3593     5.7544    -0.0319 C.3     
  15 C15            8.0132     7.1376    -0.0292 C.3     
  16 C16            7.5904     7.8992     1.2287 C.3     
  17 C17            6.0684     8.0547     1.2433 C.3     
  18 C18            5.6232     8.8317     0.0028 C.3     
  19 C19            6.0460     8.0701    -1.2551 C.3     
  20 C20            5.3920     6.6869    -1.2578 C.3     
  21 C21            7.5680     7.9147    -1.2697 C.3     
  22 C22            5.4144     6.6715     1.2406 C.3     
  23 N23            9.4706     6.9888    -0.0432 N.am    
  24 C24           10.2596     8.0814    -0.0435 C.2     
  25 O25            9.7622     9.1900    -0.0321 O.2     
  26 C26           11.7336     7.9309    -0.0576 C.ar    
  27 C27           12.5437     9.0642    -0.0579 C.ar    
  28 C28           13.9206     8.9074    -0.0707 C.ar    
  29 C29           14.4396     7.6221    -0.0829 C.ar    
  30 C30           13.5741     6.5401    -0.0819 C.ar    
  31 N31           12.2710     6.7174    -0.0644 N.ar    
  32 C32           -1.2230    -0.8817     0.0098 C.3     
  33 H33            4.0858    -0.1297    -0.0377 H       
  34 H34            5.1113     2.0838    -0.0348 H       
  35 H35            1.2302     3.9148     0.0109 H       
  36 H36            5.7631     3.7880    -0.0297 H       
  37 H37            7.6764     5.2008     0.8519 H       
  38 H38            7.6605     5.2119    -0.9280 H       
  39 H39            7.9076     7.3456     2.1124 H       
  40 H40            8.0563     8.8846     1.2306 H       
  41 H41            5.7672     8.5972     2.1394 H       
  42 H42            4.5389     8.9425     0.0132 H       
  43 H43            6.0891     9.8171     0.0047 H       
  44 H44            5.7288     8.6237    -2.1388 H       
  45 H45            5.6932     6.1444    -2.1539 H       
  46 H46            4.3077     6.7977    -1.2473 H       
  47 H47            8.0339     8.9001    -1.2677 H       
  48 H48            7.8692     7.3721    -2.1658 H       
  49 H49            4.3301     6.7822     1.2510 H       
  50 H50            5.7316     6.1179     2.1243 H       
  51 H51            9.8677     6.1038    -0.0522 H       
  52 H52           12.1049    10.0510    -0.0485 H       
  53 H53           14.5743     9.7671    -0.0716 H       
  54 H54           15.5082     7.4656    -0.0934 H       
  55 H55           13.9751     5.5373    -0.0913 H       
  56 H56           -1.5288    -1.0877    -1.0159 H       
  57 H57           -0.9949    -1.8195     0.5163 H       
  58 H58           -2.0314    -0.3725     0.5346 H       
@<TRIPOS>BOND
   1    1    2 1
   2    1    5 1
   3    2    3 2
   4    2   32 1
   5    3    4 1
   6    4    5 ar
   7    4    6 ar
   8    5    9 ar
   9    6    7 ar
  10    6   33 1
  11    7    8 ar
  12    7   34 1
  13    8    9 ar
  14    8   10 1
  15    9   35 1
  16   10   11 2
  17   10   12 am
  18   12   13 1
  19   12   36 1
  20   13   14 1
  21   13   20 1
  22   13   22 1
  23   14   15 1
  24   14   37 1
  25   14   38 1
  26   15   16 1
  27   15   21 1
  28   15   23 1
  29   16   17 1
  30   16   39 1
  31   16   40 1
  32   17   18 1
  33   17   22 1
  34   17   41 1
  35   18   19 1
  36   18   42 1
  37   18   43 1
  38   19   20 1
  39   19   21 1
  40   19   44 1
  41   20   45 1
  42   20   46 1
  43   21   47 1
  44   21   48 1
  45   22   49 1
  46   22   50 1
  47   23   24 am
  48   23   51 1
  49   24   25 2
  50   24   26 1
  51   26   27 ar
  52   26   31 ar
  53   27   28 ar
  54   27   52 1
  55   28   29 ar
  56   28   53 1
  57   29   30 ar
  58   29   54 1
  59   30   31 ar
  60   30   55 1
  61   32   56 1
  62   32   57 1
  63   32   58 1

#	End of record

