#	Name: ASD03950066
#	Creating user name:	WinNT
#	Creation time:	15. 06. 2019 20:48

#	Modifying user name:	WinNT
#	Modification time:	15. 06. 2019 20:48

#	Program:	/corina/corina34_cracker 3.40 0067  02.08.2006

@<TRIPOS>MOLECULE
ASD03950066
  70   74    0    0    0
SMALL
NO_CHARGES


@<TRIPOS>ATOM
   1 N1            -0.0169     1.3942     0.0097 N.pl3   
   2 N2             0.0021    -0.0041     0.0020 N.2     
   3 C3             1.2311    -0.4341    -0.0120 C.2     
   4 C4             2.1093     0.7334    -0.0141 C.ar    
   5 C5             3.4967     0.8990    -0.0268 C.ar    
   6 C6             4.0411     2.1756    -0.0256 C.ar    
   7 C7             3.2112     3.2979    -0.0112 C.ar    
   8 C8             1.8299     3.1501     0.0020 C.ar    
   9 C9             1.2663     1.8606    -0.0000 C.ar    
  10 C10            0.9576     4.3398     0.0177 C.2     
  11 O11           -0.2510     4.2074     0.0293 O.2     
  12 N12            1.5004     5.5734     0.0192 N.am    
  13 N13            1.2107    -4.6672    -0.0344 N.am    
  14 C14            1.6135    -4.0361     1.2298 C.3     
  15 C15            1.1379    -2.5799     1.2275 C.3     
  16 C16            1.6687    -1.8761    -0.0235 C.3     
  17 C17            1.1162    -2.5666    -1.2725 C.3     
  18 C18            1.5916    -4.0227    -1.2986 C.3     
  19 S19            0.3495    -6.0817    -0.0344 S.o2    
  20 O20            0.6708    -6.6876    -1.2790 O.2     
  21 O21            0.6975    -6.7039     1.1948 O.2     
  22 C22           -1.3862    -5.5549    -0.0123 C.3     
  23 C23           -2.2932    -6.7870    -0.0106 C.3     
  24 C24           -3.7571    -6.3427     0.0080 C.3     
  25 N25           -4.6280    -7.5258     0.0096 N.3     
  26 C26           -6.0256    -7.1506     0.2654 C.3     
  27 C27           -6.9094    -8.3972     0.1801 C.3     
  28 N28           -6.4463    -9.3907     1.1589 N.3     
  29 C29           -5.0486    -9.7659     0.9031 C.3     
  30 C30           -4.1648    -8.5193     0.9884 C.3     
  31 C31            5.5152     2.3486    -0.0391 C.ar    
  32 C32            6.0691     3.6270    -0.0380 C.ar    
  33 C33            7.4405     3.7821    -0.0501 C.ar    
  34 C34            8.2646     2.6713    -0.0639 C.ar    
  35 C35            7.7200     1.3999    -0.0656 C.ar    
  36 C36            6.3500     1.2332    -0.0472 C.ar    
  37 H37           -0.8151     1.9454     0.0166 H       
  38 H38            4.1444     0.0349    -0.0373 H       
  39 H39            3.6454     4.2868    -0.0100 H       
  40 H40            2.4646     5.6790     0.0099 H       
  41 H41            0.9269     6.3556     0.0295 H       
  42 H42            1.1581    -4.5680     2.0651 H       
  43 H43            2.6991    -4.0658     1.3233 H       
  44 H44            0.0483    -2.5531     1.2253 H       
  45 H45            1.5130    -2.0733     2.1168 H       
  46 H46            2.7576    -1.9251    -0.0333 H       
  47 H47            0.0268    -2.5399    -1.2511 H       
  48 H48            1.4759    -2.0505    -2.1627 H       
  49 H49            2.6754    -4.0513    -1.4112 H       
  50 H50            1.1217    -4.5457    -2.1315 H       
  51 H51           -1.5750    -4.9635     0.8837 H       
  52 H52           -1.5942    -4.9518    -0.8961 H       
  53 H53           -2.1044    -7.3784    -0.9066 H       
  54 H54           -2.0852    -7.3901     0.8732 H       
  55 H55           -3.9459    -5.7514     0.9040 H       
  56 H56           -3.9651    -5.7396    -0.8758 H       
  57 H57           -6.1085    -6.7134     1.2604 H       
  58 H58           -6.3492    -6.4237    -0.4796 H       
  59 H59           -7.9425    -8.1261     0.3981 H       
  60 H60           -6.8477    -8.8188    -0.8231 H       
  61 H61           -6.5627    -9.0509     2.1018 H       
  62 H62           -4.7251   -10.4928     1.6482 H       
  63 H63           -4.9657   -10.2031    -0.0919 H       
  64 H64           -3.1318    -8.7903     0.7705 H       
  65 H65           -4.2266    -8.0977     1.9916 H       
  66 H66            5.4265     4.4950    -0.0279 H       
  67 H67            7.8709     4.7727    -0.0492 H       
  68 H68            9.3372     2.7972    -0.0737 H       
  69 H69            8.3680     0.5359    -0.0771 H       
  70 H70            5.9258     0.2400    -0.0437 H       
@<TRIPOS>BOND
   1    1    2 1
   2    1    9 1
   3    1   37 1
   4    2    3 2
   5    3    4 1
   6    3   16 1
   7    4    5 ar
   8    4    9 ar
   9    5    6 ar
  10    5   38 1
  11    6    7 ar
  12    6   31 1
  13    7    8 ar
  14    7   39 1
  15    8    9 ar
  16    8   10 1
  17   10   11 2
  18   10   12 am
  19   12   40 1
  20   12   41 1
  21   13   14 1
  22   13   18 1
  23   13   19 am
  24   14   15 1
  25   14   42 1
  26   14   43 1
  27   15   16 1
  28   15   44 1
  29   15   45 1
  30   16   17 1
  31   16   46 1
  32   17   18 1
  33   17   47 1
  34   17   48 1
  35   18   49 1
  36   18   50 1
  37   19   20 2
  38   19   21 2
  39   19   22 1
  40   22   23 1
  41   22   51 1
  42   22   52 1
  43   23   24 1
  44   23   53 1
  45   23   54 1
  46   24   25 1
  47   24   55 1
  48   24   56 1
  49   25   26 1
  50   25   30 1
  51   26   27 1
  52   26   57 1
  53   26   58 1
  54   27   28 1
  55   27   59 1
  56   27   60 1
  57   28   29 1
  58   28   61 1
  59   29   30 1
  60   29   62 1
  61   29   63 1
  62   30   64 1
  63   30   65 1
  64   31   32 ar
  65   31   36 ar
  66   32   33 ar
  67   32   66 1
  68   33   34 ar
  69   33   67 1
  70   34   35 ar
  71   34   68 1
  72   35   36 ar
  73   35   69 1
  74   36   70 1

#	End of record

