#	Name: ASD01918614
#	Creating user name:	WinNT
#	Creation time:	15. 06. 2019 20:11

#	Modifying user name:	WinNT
#	Modification time:	15. 06. 2019 20:11

#	Program:	/corina/corina34_cracker 3.40 0067  02.08.2006

@<TRIPOS>MOLECULE
ASD01918614
  34   35    0    0    0
SMALL
NO_CHARGES


@<TRIPOS>ATOM
   1 C1            -0.0184     1.5028     0.0103 C.3     
   2 C2             0.0021    -0.0041     0.0020 C.ar    
   3 C3             0.0056    -0.6792    -1.2050 C.ar    
   4 C4             0.0249    -2.0676    -1.2104 C.ar    
   5 C5             0.0401    -2.7329     0.0019 C.ar    
   6 C6             0.0355    -1.9883     1.1844 C.ar    
   7 N7             0.0218    -0.6594     1.1443 N.ar    
   8 C8             0.0505    -2.6612     2.4484 C.1     
   9 C9             0.0629    -3.2130     3.4846 C.1     
  10 C10            0.0780    -3.8859     4.7485 C.ar    
  11 C11            0.1030    -5.2880     4.7958 C.ar    
  12 C12            0.1174    -5.9525     6.0186 C.ar    
  13 O13            0.1417    -7.3109     6.0487 O.3     
  14 C14            0.1554    -7.9312     7.3360 C.3     
  15 C15            0.1811    -9.3942     7.1755 C.1     
  16 C16            0.2016   -10.5610     7.0475 C.1     
  17 C17            0.1076    -5.2411     7.1995 C.ar    
  18 C18            0.0828    -3.8236     7.1714 C.ar    
  19 C19            0.0735    -3.1502     5.9263 C.ar    
  20 N20            0.0728    -3.1337     8.3034 N.2     
  21 N21            0.0531    -2.0102     8.2766 N.1     
  22 N22            0.0334    -0.8867     8.2499 N.pl3   
  23 H23            1.0042     1.8801     0.0026 H       
  24 H24           -0.5455     1.8639    -0.8728 H       
  25 H25           -0.5286     1.8543     0.9071 H       
  26 H26           -0.0070    -0.1311    -2.1356 H       
  27 H27            0.0276    -2.6159    -2.1408 H       
  28 H28            0.0549    -3.8123     0.0343 H       
  29 H29            0.1109    -5.8555     3.8770 H       
  30 H30            1.0409    -7.6102     7.8845 H       
  31 H31           -0.7388    -7.6419     7.8882 H       
  32 H32            0.2200   -11.6046     6.9331 H       
  33 H33            0.1185    -5.7629     8.1450 H       
  34 H34            0.0590    -2.0708     5.8926 H       
@<TRIPOS>BOND
   1    1    2 1
   2    1   23 1
   3    1   24 1
   4    1   25 1
   5    2    7 ar
   6    2    3 ar
   7    3    4 ar
   8    3   26 1
   9    4    5 ar
  10    4   27 1
  11    5    6 ar
  12    5   28 1
  13    6    7 ar
  14    6    8 1
  15    8    9 3
  16    9   10 1
  17   10   19 ar
  18   10   11 ar
  19   11   12 ar
  20   11   29 1
  21   12   13 1
  22   12   17 ar
  23   13   14 1
  24   14   15 1
  25   14   30 1
  26   14   31 1
  27   15   16 3
  28   16   32 1
  29   17   18 ar
  30   17   33 1
  31   18   19 ar
  32   18   20 1
  33   19   34 1
  34   20   21 2
  35   21   22 2

#	End of record

