#	Name: ASD02508421
#	Creating user name:	WinNT
#	Creation time:	15. 06. 2019 20:24

#	Modifying user name:	WinNT
#	Modification time:	15. 06. 2019 20:24

#	Program:	/corina/corina34_cracker 3.40 0067  02.08.2006

@<TRIPOS>MOLECULE
ASD02508421
  32   34    0    0    0
SMALL
NO_CHARGES


@<TRIPOS>ATOM
   1 N1             0.5503     1.4557     0.6083 N.2     
   2 C2             0.4172     0.1206     0.6118 C.2     
   3 C3             1.5686    -0.4186     0.1705 C.2     
   4 N4             2.4160     0.6252    -0.1053 N.pl3   
   5 C5             1.7419     1.7711     0.1813 C.2     
   6 C6             3.7211     0.5290    -0.5876 C.ar    
   7 N7             4.4124     1.6363    -0.8040 N.ar    
   8 N8             4.2395    -0.6675    -0.8125 N.ar    
   9 C9             5.4742    -0.7948    -1.2699 C.ar    
  10 C10            6.2254     0.3445    -1.5131 C.ar    
  11 C11            5.6525     1.5813    -1.2611 C.ar    
  12 S12            1.9207    -2.1349    -0.0167 S.o2    
  13 O13            1.6531    -2.4536    -1.3754 O.2     
  14 O14            3.1821    -2.3553     0.5993 O.2     
  15 N15            0.8080    -2.9649     0.8861 N.am    
  16 C16            0.7640    -2.7923     2.2721 C.ar    
  17 C17           -0.4532    -2.5887     2.9096 C.ar    
  18 C18           -0.4938    -2.4183     4.2795 C.ar    
  19 C19            0.6767    -2.4502     5.0170 C.ar    
  20 C20            1.8908    -2.6523     4.3845 C.ar    
  21 C21            1.9366    -2.8295     3.0155 C.ar    
  22 Cl22           0.6220    -2.2356     6.7388 Cl      
  23 H23           -0.4623    -0.4271     0.9166 H       
  24 H24            2.1281     2.7739     0.0732 H       
  25 H25            5.8918    -1.7741    -1.4511 H       
  26 H26            7.2360     0.2700    -1.8866 H       
  27 H27            6.2102     2.4888    -1.4397 H       
  28 H28            0.1868    -3.5710     0.4529 H       
  29 H29           -1.3670    -2.5634     2.3345 H       
  30 H30           -1.4398    -2.2596     4.7757 H       
  31 H31            2.8029    -2.6761     4.9624 H       
  32 H32            2.8844    -2.9876     2.5224 H       
@<TRIPOS>BOND
   1    1    2 1
   2    1    5 2
   3    2    3 2
   4    2   23 1
   5    3    4 1
   6    3   12 1
   7    4    5 1
   8    4    6 1
   9    5   24 1
  10    6    7 ar
  11    6    8 ar
  12    7   11 ar
  13    8    9 ar
  14    9   10 ar
  15    9   25 1
  16   10   11 ar
  17   10   26 1
  18   11   27 1
  19   12   13 2
  20   12   14 2
  21   12   15 am
  22   15   16 1
  23   15   28 1
  24   16   17 ar
  25   16   21 ar
  26   17   18 ar
  27   17   29 1
  28   18   19 ar
  29   18   30 1
  30   19   20 ar
  31   19   22 1
  32   20   21 ar
  33   20   31 1
  34   21   32 1

#	End of record

