#	Name: ASD09740024
#	Creating user name:	WinNT
#	Creation time:	15. 06. 2019 21:22

#	Modifying user name:	WinNT
#	Modification time:	15. 06. 2019 21:22

#	Program:	/corina/corina34_cracker 3.40 0067  02.08.2006

@<TRIPOS>MOLECULE
ASD09740024
  41   45    0    0    0
SMALL
NO_CHARGES


@<TRIPOS>ATOM
   1 S1            -0.0211     1.7018     0.0114 S.3     
   2 C2             0.0021    -0.0041     0.0020 C.2     
   3 C3             1.7344     1.7801    -0.0049 C.2     
   4 C4             2.2459     0.5298    -0.0165 C.2     
   5 C5             1.2797    -0.4652    -0.0127 C.2     
   6 C6             1.6135    -1.9112    -0.0236 C.ar    
   7 C7             2.5255     3.0174    -0.0063 C.2     
   8 O8             3.8659     3.1115    -0.0249 O.3     
   9 C9             2.5163    -2.4134    -0.9586 C.ar    
  10 C10            1.0294    -2.7707     0.9047 C.ar    
  11 C11            1.3433    -4.1146     0.8899 C.ar    
  12 C12            2.2359    -4.6087    -0.0441 C.ar    
  13 C13            2.8230    -3.7591    -0.9643 C.ar    
  14 N14            2.0556     4.2548     0.0048 N.2     
  15 C15            3.1428     5.0527    -0.0017 C.2     
  16 N16            4.1977     4.2778    -0.0202 N.2     
  17 C17            4.3461     7.2294    -0.0029 C.ar    
  18 C18            4.3335     8.6233     0.0033 C.ar    
  19 C19            3.1431     6.5367     0.0053 C.ar    
  20 C20            1.9314     7.2349     0.0196 C.ar    
  21 C21            1.9137     8.5998     0.0253 C.ar    
  22 C22            3.1075     9.3156     0.0174 C.ar    
  23 N23            3.4019    10.6600     0.0197 N.pl3   
  24 C24            4.7583    10.8405     0.0078 C.2     
  25 C25            5.3787     9.6504    -0.0025 C.2     
  26 C26           -1.2253    -0.8785     0.0095 C.3     
  27 F27           -1.5923    -1.1557     1.3307 F       
  28 F28           -2.2742    -0.2155    -0.6366 F       
  29 F29           -0.9487    -2.0761    -0.6587 F       
  30 H30            3.3062     0.3246    -0.0274 H       
  31 H31            2.9750    -1.7509    -1.6777 H       
  32 H32            0.3326    -2.3858     1.6346 H       
  33 H33            0.8915    -4.7816     1.6092 H       
  34 H34            2.4788    -5.6610    -0.0521 H       
  35 H35            3.5193    -4.1501    -1.6914 H       
  36 H36            5.2834     6.6931    -0.0181 H       
  37 H37            0.9999     6.6885     0.0259 H       
  38 H38            0.9706     9.1259     0.0357 H       
  39 H39            2.7452    11.3739     0.0282 H       
  40 H40            5.2560    11.7989     0.0068 H       
  41 H41            6.4454     9.4817    -0.0127 H       
@<TRIPOS>BOND
   1    1    2 1
   2    1    3 1
   3    2   26 1
   4    2    5 2
   5    3    4 2
   6    3    7 1
   7    4    5 1
   8    4   30 1
   9    5    6 1
  10    6    9 ar
  11    6   10 ar
  12    7   14 2
  13    7    8 1
  14    8   16 1
  15    9   13 ar
  16    9   31 1
  17   10   11 ar
  18   10   32 1
  19   11   12 ar
  20   11   33 1
  21   12   13 ar
  22   12   34 1
  23   13   35 1
  24   14   15 1
  25   15   16 2
  26   15   19 1
  27   17   18 ar
  28   17   19 ar
  29   17   36 1
  30   18   22 ar
  31   18   25 1
  32   19   20 ar
  33   20   21 ar
  34   20   37 1
  35   21   22 ar
  36   21   38 1
  37   22   23 1
  38   23   24 1
  39   23   39 1
  40   24   25 2
  41   24   40 1
  42   25   41 1
  43   26   27 1
  44   26   28 1
  45   26   29 1

#	End of record

