#	Name: ASD08170117
#	Creating user name:	WinNT
#	Creation time:	15. 06. 2019 21:17

#	Modifying user name:	WinNT
#	Modification time:	15. 06. 2019 21:17

#	Program:	/corina/corina34_cracker 3.40 0067  02.08.2006

@<TRIPOS>MOLECULE
ASD08170117
  74   77    0    0    0
SMALL
NO_CHARGES


@<TRIPOS>ATOM
   1 C1            -1.4958     0.9174     0.1238 C.3     
   2 C2            -1.4719    -0.6121     0.1551 C.3     
   3 C3            -0.0811     1.4446    -0.1240 C.3     
   4 C4            -0.1050     2.9741    -0.1554 C.3     
   5 C5             1.2885     3.4934    -0.3994 C.2     
   6 C6            -2.8654    -1.1314     0.3992 C.2     
   7 S7             2.4845     3.8844     0.8369 S.3     
   8 C8             3.5848     4.3331    -0.3971 C.2     
   9 N9             3.0091     4.1658    -1.5493 N.2     
  10 N10            1.8252     3.7275    -1.5548 N.2     
  11 S11           -3.5936    -1.4574     1.9724 S.3     
  12 N12           -3.7455    -1.4131    -0.5084 N.2     
  13 N13           -4.8620    -1.8380    -0.0999 N.2     
  14 C14           -5.0309    -1.9529     1.1828 C.2     
  15 N15           -6.1875    -2.4019     1.8112 N.am    
  16 C16           -7.2577    -2.7621     1.0754 C.2     
  17 O17           -7.2120    -2.6948    -0.1347 O.2     
  18 N18            4.8798     4.7996    -0.1980 N.am    
  19 C19            5.6503     5.1211    -1.2561 C.2     
  20 C20            7.0535     5.6266    -1.0404 C.3     
  21 O21            5.2144     5.0035    -2.3817 O.2     
  22 C22           -8.5110    -3.2487     1.7563 C.3     
  23 C23            7.6954     5.9113    -2.3738 C.ar    
  24 C24           -9.5492    -3.5846     0.7170 C.ar    
  25 C25            7.5775     7.1663    -2.9423 C.ar    
  26 C26           -9.6135    -4.8632     0.1941 C.ar    
  27 C27            8.1645     7.4306    -4.1642 C.ar    
  28 C28            8.8739     6.4338    -4.8222 C.ar    
  29 C29            8.9904     5.1742    -4.2483 C.ar    
  30 C30            8.4057     4.9184    -3.0235 C.ar    
  31 C31          -10.5637    -5.1744    -0.7585 C.ar    
  32 C32          -11.4556    -4.2014    -1.1914 C.ar    
  33 C33          -11.3883    -2.9180    -0.6641 C.ar    
  34 C34          -10.4392    -2.6151     0.2924 C.ar    
  35 N35          -12.4176    -4.5126    -2.1550 N.pl3   
  36 C36          -12.4057    -5.8257    -2.8045 C.3     
  37 N37            9.4685     6.6975    -6.0582 N.pl3   
  38 C38            9.2431     7.9851    -6.7197 C.3     
  39 C39          -13.4385    -3.5259    -2.5162 C.3     
  40 C40           10.3174     5.6865    -6.6933 C.3     
  41 H41           -2.1544     1.2541    -0.6768 H       
  42 H42           -1.8622     1.2947     1.0785 H       
  43 H43           -1.1056    -0.9894    -0.7996 H       
  44 H44           -0.8133    -0.9488     0.9557 H       
  45 H45            0.5775     1.1079     0.6766 H       
  46 H46            0.2853     1.0673    -1.0787 H       
  47 H47           -0.7636     3.3108    -0.9560 H       
  48 H48           -0.4713     3.3514     0.7994 H       
  49 H49           -6.2240    -2.4557     2.7790 H       
  50 H50            5.2284     4.8937     0.7022 H       
  51 H51            7.0231     6.5418    -0.4491 H       
  52 H52            7.6346     4.8713    -0.5113 H       
  53 H53           -8.2835    -4.1384     2.3434 H       
  54 H54           -8.8940    -2.4678     2.4134 H       
  55 H55            7.0255     7.9407    -2.4304 H       
  56 H56           -8.9195    -5.6191     0.5308 H       
  57 H57            8.0718     8.4109    -4.6078 H       
  58 H58            9.5413     4.3971    -4.7572 H       
  59 H59            8.4961     3.9394    -2.5766 H       
  60 H60          -10.6131    -6.1731    -1.1667 H       
  61 H61          -12.0802    -2.1592    -0.9984 H       
  62 H62          -10.3865    -1.6176     0.7030 H       
  63 H63          -13.0193    -6.5204    -2.2309 H       
  64 H64          -12.8064    -5.7352    -3.8141 H       
  65 H65          -11.3825    -6.1984    -2.8518 H       
  66 H66           10.0091     8.6941    -6.4053 H       
  67 H67            9.2928     7.8520    -7.8004 H       
  68 H68            8.2598     8.3673    -6.4455 H       
  69 H69          -13.3479    -2.6550    -1.8670 H       
  70 H70          -13.2991    -3.2219    -3.5536 H       
  71 H71          -14.4282    -3.9668    -2.3966 H       
  72 H72           10.2951     4.7704    -6.1030 H       
  73 H73            9.9477     5.4805    -7.6978 H       
  74 H74           11.3411     6.0562    -6.7516 H       
@<TRIPOS>BOND
   1    1    2 1
   2    1    3 1
   3    1   41 1
   4    1   42 1
   5    2    6 1
   6    2   43 1
   7    2   44 1
   8    3    4 1
   9    3   45 1
  10    3   46 1
  11    4    5 1
  12    4   47 1
  13    4   48 1
  14    5    7 1
  15    5   10 2
  16    6   11 1
  17    6   12 2
  18    7    8 1
  19    8    9 2
  20    8   18 1
  21    9   10 1
  22   11   14 1
  23   12   13 1
  24   13   14 2
  25   14   15 1
  26   15   16 am
  27   15   49 1
  28   16   17 2
  29   16   22 1
  30   18   19 am
  31   18   50 1
  32   19   20 1
  33   19   21 2
  34   20   23 1
  35   20   51 1
  36   20   52 1
  37   22   24 1
  38   22   53 1
  39   22   54 1
  40   23   25 ar
  41   23   30 ar
  42   24   26 ar
  43   24   34 ar
  44   25   27 ar
  45   25   55 1
  46   26   31 ar
  47   26   56 1
  48   27   28 ar
  49   27   57 1
  50   28   29 ar
  51   28   37 1
  52   29   30 ar
  53   29   58 1
  54   30   59 1
  55   31   32 ar
  56   31   60 1
  57   32   33 ar
  58   32   35 1
  59   33   34 ar
  60   33   61 1
  61   34   62 1
  62   35   36 1
  63   35   39 1
  64   36   63 1
  65   36   64 1
  66   36   65 1
  67   37   38 1
  68   37   40 1
  69   38   66 1
  70   38   67 1
  71   38   68 1
  72   39   69 1
  73   39   70 1
  74   39   71 1
  75   40   72 1
  76   40   73 1
  77   40   74 1

#	End of record

