#	Name: ASD06590045
#	Creating user name:	WinNT
#	Creation time:	15. 06. 2019 21:06

#	Modifying user name:	WinNT
#	Modification time:	15. 06. 2019 21:06

#	Program:	/corina/corina34_cracker 3.40 0067  02.08.2006

@<TRIPOS>MOLECULE
ASD06590045
 316  316    0    0    0
SMALL
NO_CHARGES


@<TRIPOS>ATOM
   1 C1            -0.2375     8.9565     8.4387 C.2     
   2 O2             0.2418     9.1295     7.3381 O.2     
   3 N3             1.8007     9.9192     9.3377 N.am    
   4 C4             0.4102     9.5786     9.6489 C.3     
   5 C5            -0.3507    10.8474    10.0389 C.3     
   6 C6             0.2905    11.4643    11.2836 C.3     
   7 O7            -0.2978    11.7847     8.9616 O.3     
   8 C8            -3.5251     8.0556     7.5093 C.2     
   9 O9            -3.9377     8.6441     8.4862 O.2     
  10 N10           -1.3524     8.2123     8.5788 N.am    
  11 C11           -2.0600     7.7226     7.3932 C.3     
  12 C12           -1.8886     6.2059     7.2872 C.3     
  13 C13           -0.4287     5.8765     7.1102 C.2     
  14 O14            0.3983     6.7636     7.1174 O.2     
  15 N15           -0.0421     4.5962     6.9438 N.am    
  16 C16           -6.6043     7.0523     5.8136 C.2     
  17 O17           -6.0421     6.1761     5.1914 O.2     
  18 N18           -4.3770     7.6995     6.5275 N.am    
  19 C19           -5.8013     8.0233     6.6404 C.3     
  20 C20           -6.0426     9.4464     6.1330 C.3     
  21 C21          -10.1927     6.5466     5.0781 C.2     
  22 O22          -10.5498     7.4805     5.7646 O.2     
  23 N23           -7.9470     7.1575     5.7657 N.am    
  24 C24           -8.7276     6.2136     4.9620 C.3     
  25 C25          -13.3497     4.8950     4.2602 C.2     
  26 O26          -12.7980     3.8472     3.9981 O.2     
  27 N27          -11.1063     5.8067     4.4191 N.am    
  28 C28          -12.5306     6.1305     4.5319 C.3     
  29 C29          -12.8895     7.2144     3.5136 C.3     
  30 C30          -12.1514     8.5080     3.8641 C.3     
  31 C31          -12.5102     9.5919     2.8457 C.3     
  32 N32          -11.8035    10.8305     3.1813 N.pl3   
  33 C33          -11.9711    11.9505     2.4018 C.2     
  34 N34          -12.7589    11.9104     1.3642 N.2     
  35 N35          -11.3079    13.1128     2.7168 N.pl3   
  36 C36          -16.8598     4.1550     3.5570 C.2     
  37 O37          -17.1421     5.3288     3.4417 O.2     
  38 N38          -14.6952     4.9544     4.3085 N.am    
  39 C39          -15.4915     3.7534     4.0444 C.3     
  40 C40          -15.6276     2.9384     5.3320 C.3     
  41 O41          -16.3777     3.6857     6.2917 O.3     
  42 C42          -20.0216     3.9472     3.7734 C.2     
  43 O43          -19.6662     3.8829     4.9312 O.2     
  44 N44          -17.7698     3.2096     3.2493 N.am    
  45 C45          -19.0586     3.5949     2.6690 C.3     
  46 C46          -19.6209     2.4276     1.8553 C.3     
  47 C47          -18.7125     2.1467     0.6861 C.2     
  48 O48          -17.7754     2.8753     0.4604 O.2     
  49 O49          -18.9445     1.0872    -0.1047 O.3     
  50 C50          -23.6270     4.4747     4.0656 C.2     
  51 O51          -23.8322     4.0834     2.9361 O.2     
  52 N52          -21.2776     4.3338     3.4745 N.am    
  53 C53          -22.2137     4.6763     4.5481 C.3     
  54 C54          -22.0158     6.1393     4.9498 C.3     
  55 C55          -20.5499     6.3724     5.3211 C.3     
  56 O56          -22.3703     6.9862     3.8547 O.3     
  57 C57          -26.9686     5.4142     5.2118 C.2     
  58 O58          -26.5283     6.1349     6.0822 O.2     
  59 N59          -24.6631     4.7292     4.8892 N.am    
  60 C60          -26.0370     4.5332     4.4201 C.3     
  61 C61          -26.4365     3.0684     4.6094 C.3     
  62 C62          -25.5714     2.1835     3.7096 C.3     
  63 C63          -25.9709     0.7188     3.8988 C.3     
  64 N64          -25.1426    -0.1285     3.0372 N.pl3   
  65 C65          -25.3216    -1.4916     3.0368 C.2     
  66 N66          -26.2283    -2.0301     3.8028 N.2     
  67 N67          -24.5443    -2.2867     2.2282 N.pl3   
  68 C68          -30.5813     5.6627     5.7117 C.2     
  69 O69          -30.7909     4.6252     5.1194 O.2     
  70 N70          -28.2912     5.4013     4.9527 N.am    
  71 C71          -29.1969     6.2578     5.7224 C.3     
  72 C72          -29.2364     7.6525     5.0946 C.3     
  73 C73          -27.8586     8.3064     5.2176 C.3     
  74 C74          -27.8976     9.6801     4.5992 C.2     
  75 O75          -28.9260    10.0953     4.1084 O.2     
  76 N76          -26.7895    10.4474     4.5916 N.am    
  77 C77          -33.9496     6.7949     6.5695 C.2     
  78 O78          -33.5860     7.9421     6.7199 O.2     
  79 N79          -31.5866     6.2833     6.3602 N.am    
  80 C80          -32.9325     5.7048     6.3498 C.3     
  81 C81          -33.0496     4.6655     7.4666 C.3     
  82 C82          -32.1047     3.4974     7.1773 C.3     
  83 C83          -32.2199     2.4738     8.2773 C.2     
  84 O84          -32.9827     2.6602     9.2016 O.2     
  85 N85          -31.4753     1.3512     8.2339 N.am    
  86 C86          -37.5051     6.9610     7.4025 C.2     
  87 O87          -37.5663     5.7700     7.6230 O.2     
  88 N88          -35.2632     6.4950     6.5988 N.am    
  89 C89          -36.2520     7.5547     6.8124 C.3     
  90 C90          -36.5836     8.2198     5.4750 C.3     
  91 C91          -35.3585     8.9187     4.9441 C.ar    
  92 C92          -34.4770     8.2387     4.1242 C.ar    
  93 C93          -33.3530     8.8770     3.6366 C.ar    
  94 C94          -33.1093    10.2014     3.9699 C.ar    
  95 O95          -32.0046    10.8316     3.4912 O.3     
  96 C96          -33.9956    10.8816     4.7924 C.ar    
  97 C97          -35.1209    10.2404     5.2732 C.ar    
  98 C98          -40.9539     8.0549     7.9241 C.2     
  99 O99          -40.7918     9.0636     7.2705 O.2     
 100 N100         -38.5578     7.7537     7.6853 N.am    
 101 C101         -39.7760     7.1766     8.2590 C.3     
 102 C102         -39.6278     7.0798     9.7787 C.3     
 103 C103         -38.5116     6.0907    10.1203 C.3     
 104 C104         -38.3634     5.9939    11.6400 C.3     
 105 N105         -37.2946     5.0468    11.9671 N.pl3   
 106 C106         -36.9778     4.7947    13.2809 C.2     
 107 N107         -36.0269     3.9520    13.5719 N.2     
 108 N108         -37.6641     5.4313    14.2879 N.pl3   
 109 C109         -44.4155     8.3753     9.0545 C.2     
 110 O110         -44.2474     7.5976     9.9698 O.2     
 111 N111         -42.1876     7.7194     8.3508 N.am    
 112 C112         -43.3326     8.5733     8.0253 C.3     
 113 C113         -43.8696     8.2008     6.6419 C.3     
 114 C114         -42.8130     8.5191     5.5820 C.3     
 115 C115         -43.3500     8.1466     4.1986 C.3     
 116 C116         -42.2934     8.4650     3.1388 C.3     
 117 N117         -42.8089     8.1073     1.8105 N.3     
 118 C118         -47.9599     9.2183     9.3547 C.2     
 119 O119         -48.0263     9.5905     8.2023 O.2     
 120 N120         -45.5709     9.0625     8.9577 N.am    
 121 C121         -46.6236     8.8701     9.9582 C.3     
 122 C122         -46.3556     9.7765    11.1613 C.3     
 123 C123         -45.0597     9.3419    11.8487 C.3     
 124 C124         -44.7258    10.3226    12.9745 C.3     
 125 C125         -45.2372     7.9382    12.4310 C.3     
 126 C126         -50.6121    10.9390     9.6246 C.2     
 127 O127         -49.7779    11.6421    10.1438 O.2     
 128 N128         -49.0811     9.1160    10.0956 N.am    
 129 C129         -50.3801     9.4545     9.5089 C.3     
 130 C130         -51.4869     8.7057    10.2540 C.3     
 131 C131         -51.3227     7.2007    10.0329 C.3     
 132 C132         -52.3518     6.4459    10.8768 C.3     
 133 C133         -51.5395     6.8760     8.5536 C.3     
 134 O134         -51.7454    11.4801     9.1508 O.3     
 135 C135           2.7110    10.0056    10.3278 C.2     
 136 O136           2.3792     9.8014    11.4763 O.2     
 137 C137          20.0375    13.0683    16.7778 C.3     
 138 C138          18.5853    12.7126    17.1028 C.3     
 139 C139          17.7666    12.6809    15.8107 C.3     
 140 C140          16.3145    12.3251    16.1356 C.3     
 141 C141          15.4957    12.2934    14.8435 C.3     
 142 C142          14.0436    11.9376    15.1685 C.3     
 143 C143          13.2249    11.9059    13.8763 C.3     
 144 C144          11.7727    11.5502    14.2013 C.3     
 145 C145          10.9540    11.5184    12.9092 C.3     
 146 C146           9.5018    11.1627    13.2341 C.3     
 147 C147           8.6831    11.1310    11.9420 C.3     
 148 C148           7.2310    10.7752    12.2670 C.3     
 149 C149           6.4122    10.7435    10.9749 C.3     
 150 C150           4.9601    10.3878    11.2998 C.3     
 151 C151           4.1414    10.3560    10.0077 C.3     
 152 H152           2.0661    10.0826     8.4192 H       
 153 H153           0.3862     8.8712    10.4778 H       
 154 H154          -1.3899    10.5968    10.2519 H       
 155 H155           1.2862    11.8318    11.0351 H       
 156 H156          -0.3245    12.2919    11.6369 H       
 157 H157           0.3668    10.7087    12.0655 H       
 158 H158          -0.6875    11.4600     8.1383 H       
 159 H159          -1.6864     8.0010     9.4647 H       
 160 H160          -1.6488     8.1978     6.5026 H       
 161 H161          -2.2598     5.7339     8.1968 H       
 162 H162          -2.4511     5.8357     6.4301 H       
 163 H163          -0.7035     3.8867     6.9380 H       
 164 H164           0.8976     4.3842     6.8299 H       
 165 H165          -4.0471     7.2288     5.7461 H       
 166 H166          -6.1084     7.9526     7.6838 H       
 167 H167          -5.4619    10.1487     6.7310 H       
 168 H168          -5.7356     9.5170     5.0895 H       
 169 H169          -7.1024     9.6872     6.2170 H       
 170 H170          -8.3967     7.8583     6.2634 H       
 171 H171          -8.5557     5.1998     5.3235 H       
 172 H172          -8.4205     6.2843     3.9185 H       
 173 H173         -10.8207     5.0598     3.8700 H       
 174 H174         -12.7423     6.4927     5.5380 H       
 175 H175         -12.5958     6.8874     2.5161 H       
 176 H176         -13.9647     7.3922     3.5358 H       
 177 H177         -12.4450     8.8350     4.8615 H       
 178 H178         -11.0762     8.3302     3.8418 H       
 179 H179         -12.2166     9.2649     1.8482 H       
 180 H180         -13.5854     9.7697     2.8679 H       
 181 H181         -11.2172    10.8604     3.9535 H       
 182 H182         -12.8772    12.7006     0.8142 H       
 183 H183         -10.7216    13.1427     3.4890 H       
 184 H184         -11.4262    13.9030     2.1668 H       
 185 H185         -15.1365     5.7924     4.5182 H       
 186 H186         -14.9972     3.1500     3.2830 H       
 187 H187         -16.1432     2.0025     5.1168 H       
 188 H188         -14.6369     2.7236     5.7326 H       
 189 H189         -16.5036     3.2289     7.1347 H       
 190 H190         -17.5714     2.2742     3.4121 H       
 191 H191         -18.9205     4.4583     2.0182 H       
 192 H192         -19.6845     1.5416     2.4870 H       
 193 H193         -20.6148     2.6851     1.4895 H       
 194 H194         -18.3347     0.9479    -0.8421 H       
 195 H195         -21.5618     4.3853     2.5485 H       
 196 H196         -22.0289     4.0348     5.4097 H       
 197 H197         -22.6487     6.3696     5.8069 H       
 198 H198         -19.9170     6.1422     4.4640 H       
 199 H199         -20.4089     7.4147     5.6073 H       
 200 H200         -20.2795     5.7265     6.1564 H       
 201 H201         -21.8463     6.8362     3.0559 H       
 202 H202         -24.4990     5.0421     5.7925 H       
 203 H203         -26.1009     4.7936     3.3636 H       
 204 H204         -26.2878     2.7829     5.6508 H       
 205 H205         -27.4859     2.9407     4.3438 H       
 206 H206         -25.7200     2.4690     2.6681 H       
 207 H207         -24.5220     2.3112     3.9751 H       
 208 H208         -25.8223     0.4333     4.9402 H       
 209 H209         -27.0203     0.5911     3.6333 H       
 210 H210         -24.4679     0.2722     2.4671 H       
 211 H211         -26.3546    -2.9919     3.8025 H       
 212 H212         -23.8696    -1.8860     1.6581 H       
 213 H213         -24.6707    -3.2485     2.2279 H       
 214 H214         -28.6434     4.8249     4.2565 H       
 215 H215         -28.8412     6.3319     6.7500 H       
 216 H216         -29.5065     7.5695     4.0418 H       
 217 H217         -29.9760     8.2632     5.6124 H       
 218 H218         -27.5886     8.3894     6.2704 H       
 219 H219         -27.1191     7.6957     4.6998 H       
 220 H220         -25.9670    10.1153     4.9842 H       
 221 H221         -26.8146    11.3316     4.1936 H       
 222 H222         -31.4190     7.1130     6.8339 H       
 223 H223         -33.1149     5.2263     5.3876 H       
 224 H224         -32.7806     5.1233     8.4185 H       
 225 H225         -34.0751     4.2995     7.5163 H       
 226 H226         -32.3736     3.0397     6.2254 H       
 227 H227         -31.0791     3.8634     7.1276 H       
 228 H228         -30.8653     1.2022     7.4946 H       
 229 H229         -31.5495     0.6923     8.9419 H       
 230 H230         -35.5540     5.5774     6.4785 H       
 231 H231         -35.8450     8.2987     7.4971 H       
 232 H232         -36.9067     7.4612     4.7621 H       
 233 H233         -37.3828     8.9469     5.6191 H       
 234 H234         -34.6671     7.2077     3.8650 H       
 235 H235         -32.6644     8.3452     2.9967 H       
 236 H236         -32.1418    11.2765     2.6436 H       
 237 H237         -33.8080    11.9126     5.0537 H       
 238 H238         -35.8134    10.7708     5.9100 H       
 239 H239         -38.5089     8.7063     7.5089 H       
 240 H240         -39.9361     6.1809     7.8454 H       
 241 H241         -39.3798     8.0613    10.1828 H       
 242 H242         -40.5654     6.7340    10.2139 H       
 243 H243         -38.7596     5.1092     9.7162 H       
 244 H244         -37.5740     6.4364     9.6851 H       
 245 H245         -38.1153     6.9754    12.0441 H       
 246 H246         -39.3010     5.6481    12.0752 H       
 247 H247         -36.8104     4.5976    11.2566 H       
 248 H248         -35.8035     3.7741    14.4989 H       
 249 H249         -38.3717     6.0584    14.0713 H       
 250 H250         -37.4406     5.2534    15.2148 H       
 251 H251         -42.3172     6.9127     8.8736 H       
 252 H252         -43.0188     9.6171     8.0242 H       
 253 H253         -44.1004     7.1358     6.6164 H       
 254 H254         -44.7740     8.7736     6.4368 H       
 255 H255         -42.5822     9.5841     5.6075 H       
 256 H256         -41.9086     7.9463     5.7871 H       
 257 H257         -43.5808     7.0816     4.1731 H       
 258 H258         -44.2544     8.7194     3.9936 H       
 259 H259         -42.0626     9.5299     3.1643 H       
 260 H260         -41.3890     7.8922     3.3438 H       
 261 H261         -43.6822     8.5768     1.6231 H       
 262 H262         -42.1290     8.3082     1.0926 H       
 263 H263         -45.7054     9.6846     8.2257 H       
 264 H264         -46.6313     7.8293    10.2820 H       
 265 H265         -46.2597    10.8087    10.8244 H       
 266 H266         -47.1839     9.6997    11.8657 H       
 267 H267         -44.2478     9.3336    11.1214 H       
 268 H268         -45.5377    10.3310    13.7018 H       
 269 H269         -43.8025    10.0130    13.4642 H       
 270 H270         -44.5993    11.3226    12.5597 H       
 271 H271         -45.4750     7.2395    11.6289 H       
 272 H272         -44.3139     7.6286    12.9207 H       
 273 H273         -46.0490     7.9466    13.1583 H       
 274 H274         -49.0280     8.8183    11.0172 H       
 275 H275         -50.3904     9.1660     8.4578 H       
 276 H276         -51.4207     8.9257    11.3196 H       
 277 H277         -52.4587     9.0245     9.8770 H       
 278 H278         -50.3182     6.8976    10.3280 H       
 279 H279         -53.3563     6.7491    10.5817 H       
 280 H280         -52.2348     5.3738    10.7193 H       
 281 H281         -52.1973     6.6773    11.9308 H       
 282 H282         -52.5441     7.1791     8.2584 H       
 283 H283         -50.8064     7.4137     7.9523 H       
 284 H284         -51.4225     5.8038     8.3960 H       
 285 H285         -51.8492    12.4366     9.2478 H       
 286 H286          20.0736    14.0477    16.3007 H       
 287 H287          20.6208    13.0909    17.6983 H       
 288 H288          20.4526    12.3198    16.1029 H       
 289 H289          18.5492    11.7332    17.5799 H       
 290 H290          18.1702    13.4611    17.7777 H       
 291 H291          17.8027    13.6602    15.3335 H       
 292 H292          18.1818    11.9324    15.1357 H       
 293 H293          16.2784    11.3457    16.6128 H       
 294 H294          15.8993    13.0736    16.8105 H       
 295 H295          15.5319    13.2727    14.3664 H       
 296 H296          15.9109    11.5449    14.1686 H       
 297 H297          14.0075    10.9583    15.6456 H       
 298 H298          13.6284    12.6861    15.8434 H       
 299 H299          13.2610    12.8853    13.3992 H       
 300 H300          13.6400    11.1574    13.2014 H       
 301 H301          11.7366    10.5708    14.6784 H       
 302 H302          11.3576    12.2987    14.8762 H       
 303 H303          10.9901    12.4978    12.4320 H       
 304 H304          11.3691    10.7699    12.2343 H       
 305 H305           9.4657    10.1833    13.7113 H       
 306 H306           9.0867    11.9112    13.9090 H       
 307 H307           8.7192    12.1103    11.4649 H       
 308 H308           9.0983    10.3825    11.2671 H       
 309 H309           7.1949     9.7959    12.7441 H       
 310 H310           6.8158    11.5237    12.9419 H       
 311 H311           6.4484    11.7229    10.4977 H       
 312 H312           6.8274     9.9950    10.3000 H       
 313 H313           4.9240     9.4084    11.7770 H       
 314 H314           4.5449    11.1363    11.9747 H       
 315 H315           4.5565     9.6075     9.3328 H       
 316 H316           4.1775    11.3354     9.5306 H       
@<TRIPOS>BOND
   1    1    2 2
   2    1    4 1
   3    1   10 am
   4    3  135 am
   5    3    4 1
   6    3  152 1
   7    4    5 1
   8    4  153 1
   9    5    6 1
  10    5    7 1
  11    5  154 1
  12    6  155 1
  13    6  156 1
  14    6  157 1
  15    7  158 1
  16    8    9 2
  17    8   11 1
  18    8   18 am
  19   10   11 1
  20   10  159 1
  21   11   12 1
  22   11  160 1
  23   12   13 1
  24   12  161 1
  25   12  162 1
  26   13   14 2
  27   13   15 am
  28   15  163 1
  29   15  164 1
  30   16   17 2
  31   16   19 1
  32   16   23 am
  33   18   19 1
  34   18  165 1
  35   19   20 1
  36   19  166 1
  37   20  167 1
  38   20  168 1
  39   20  169 1
  40   21   22 2
  41   21   24 1
  42   21   27 am
  43   23   24 1
  44   23  170 1
  45   24  171 1
  46   24  172 1
  47   25   26 2
  48   25   28 1
  49   25   38 am
  50   27   28 1
  51   27  173 1
  52   28   29 1
  53   28  174 1
  54   29   30 1
  55   29  175 1
  56   29  176 1
  57   30   31 1
  58   30  177 1
  59   30  178 1
  60   31   32 1
  61   31  179 1
  62   31  180 1
  63   32   33 1
  64   32  181 1
  65   33   34 2
  66   33   35 1
  67   34  182 1
  68   35  183 1
  69   35  184 1
  70   36   37 2
  71   36   39 1
  72   36   44 am
  73   38   39 1
  74   38  185 1
  75   39   40 1
  76   39  186 1
  77   40   41 1
  78   40  187 1
  79   40  188 1
  80   41  189 1
  81   42   43 2
  82   42   45 1
  83   42   52 am
  84   44   45 1
  85   44  190 1
  86   45   46 1
  87   45  191 1
  88   46   47 1
  89   46  192 1
  90   46  193 1
  91   47   48 2
  92   47   49 1
  93   49  194 1
  94   50   51 2
  95   50   53 1
  96   50   59 am
  97   52   53 1
  98   52  195 1
  99   53   54 1
 100   53  196 1
 101   54   55 1
 102   54   56 1
 103   54  197 1
 104   55  198 1
 105   55  199 1
 106   55  200 1
 107   56  201 1
 108   57   58 2
 109   57   60 1
 110   57   70 am
 111   59   60 1
 112   59  202 1
 113   60   61 1
 114   60  203 1
 115   61   62 1
 116   61  204 1
 117   61  205 1
 118   62   63 1
 119   62  206 1
 120   62  207 1
 121   63   64 1
 122   63  208 1
 123   63  209 1
 124   64   65 1
 125   64  210 1
 126   65   66 2
 127   65   67 1
 128   66  211 1
 129   67  212 1
 130   67  213 1
 131   68   69 2
 132   68   71 1
 133   68   79 am
 134   70   71 1
 135   70  214 1
 136   71   72 1
 137   71  215 1
 138   72   73 1
 139   72  216 1
 140   72  217 1
 141   73   74 1
 142   73  218 1
 143   73  219 1
 144   74   75 2
 145   74   76 am
 146   76  220 1
 147   76  221 1
 148   77   78 2
 149   77   80 1
 150   77   88 am
 151   79   80 1
 152   79  222 1
 153   80   81 1
 154   80  223 1
 155   81   82 1
 156   81  224 1
 157   81  225 1
 158   82   83 1
 159   82  226 1
 160   82  227 1
 161   83   84 2
 162   83   85 am
 163   85  228 1
 164   85  229 1
 165   86   87 2
 166   86   89 1
 167   86  100 am
 168   88   89 1
 169   88  230 1
 170   89   90 1
 171   89  231 1
 172   90   91 1
 173   90  232 1
 174   90  233 1
 175   91   92 ar
 176   91   97 ar
 177   92   93 ar
 178   92  234 1
 179   93   94 ar
 180   93  235 1
 181   94   95 1
 182   94   96 ar
 183   95  236 1
 184   96   97 ar
 185   96  237 1
 186   97  238 1
 187   98   99 2
 188   98  101 1
 189   98  111 am
 190  100  101 1
 191  100  239 1
 192  101  102 1
 193  101  240 1
 194  102  103 1
 195  102  241 1
 196  102  242 1
 197  103  104 1
 198  103  243 1
 199  103  244 1
 200  104  105 1
 201  104  245 1
 202  104  246 1
 203  105  106 1
 204  105  247 1
 205  106  107 2
 206  106  108 1
 207  107  248 1
 208  108  249 1
 209  108  250 1
 210  109  110 2
 211  109  112 1
 212  109  120 am
 213  111  112 1
 214  111  251 1
 215  112  113 1
 216  112  252 1
 217  113  114 1
 218  113  253 1
 219  113  254 1
 220  114  115 1
 221  114  255 1
 222  114  256 1
 223  115  116 1
 224  115  257 1
 225  115  258 1
 226  116  117 1
 227  116  259 1
 228  116  260 1
 229  117  261 1
 230  117  262 1
 231  118  119 2
 232  118  121 1
 233  118  128 am
 234  120  121 1
 235  120  263 1
 236  121  122 1
 237  121  264 1
 238  122  123 1
 239  122  265 1
 240  122  266 1
 241  123  124 1
 242  123  125 1
 243  123  267 1
 244  124  268 1
 245  124  269 1
 246  124  270 1
 247  125  271 1
 248  125  272 1
 249  125  273 1
 250  126  127 2
 251  126  129 1
 252  126  134 1
 253  128  129 1
 254  128  274 1
 255  129  130 1
 256  129  275 1
 257  130  131 1
 258  130  276 1
 259  130  277 1
 260  131  132 1
 261  131  133 1
 262  131  278 1
 263  132  279 1
 264  132  280 1
 265  132  281 1
 266  133  282 1
 267  133  283 1
 268  133  284 1
 269  134  285 1
 270  135  136 2
 271  135  151 1
 272  137  138 1
 273  137  286 1
 274  137  287 1
 275  137  288 1
 276  138  139 1
 277  138  289 1
 278  138  290 1
 279  139  140 1
 280  139  291 1
 281  139  292 1
 282  140  141 1
 283  140  293 1
 284  140  294 1
 285  141  142 1
 286  141  295 1
 287  141  296 1
 288  142  143 1
 289  142  297 1
 290  142  298 1
 291  143  144 1
 292  143  299 1
 293  143  300 1
 294  144  145 1
 295  144  301 1
 296  144  302 1
 297  145  146 1
 298  145  303 1
 299  145  304 1
 300  146  147 1
 301  146  305 1
 302  146  306 1
 303  147  148 1
 304  147  307 1
 305  147  308 1
 306  148  149 1
 307  148  309 1
 308  148  310 1
 309  149  150 1
 310  149  311 1
 311  149  312 1
 312  150  151 1
 313  150  313 1
 314  150  314 1
 315  151  315 1
 316  151  316 1

#	End of record

