#	Name: ASD03331568
#	Creating user name:	WinNT
#	Creation time:	15. 06. 2019 20:39

#	Modifying user name:	WinNT
#	Modification time:	15. 06. 2019 20:39

#	Program:	/corina/corina34_cracker 3.40 0067  02.08.2006

@<TRIPOS>MOLECULE
ASD03331568
  62   64    0    0    0
SMALL
NO_CHARGES


@<TRIPOS>ATOM
   1 C1             0.4475     1.8440    -1.9780 C.ar    
   2 C2             0.4849     0.7820    -2.8849 C.ar    
   3 C3             1.6998     2.5171    -1.5704 C.2     
   4 N4             1.9046     3.8658    -1.5404 N.pl3   
   5 C5             3.1886     4.0702    -1.1344 C.2     
   6 C6             3.7356     2.8484    -0.8964 C.2     
   7 N7             2.7967     1.9163    -1.1721 N.2     
   8 C8             5.1049     2.5875    -0.4184 C.2     
   9 O9             5.8599     3.5156    -0.1999 O.2     
  10 N10            5.5205     1.3203    -0.2232 N.am    
  11 C11            6.8818     1.0609     0.2520 C.3     
  12 C12            7.3100    -0.3182    -0.1788 C.2     
  13 C13            6.9148     1.1515     1.7790 C.3     
  14 C14            5.9235     0.1476     2.3710 C.3     
  15 C15            8.3250     0.8308     2.2785 C.3     
  16 C16            6.5291     2.5666     2.2144 C.3     
  17 C17           -0.6894     0.1575    -3.2621 C.ar    
  18 C18           -1.8988     0.5820    -2.7443 C.ar    
  19 C19           -1.9427     1.6353    -1.8445 C.ar    
  20 C20           -0.7769     2.2707    -1.4628 C.ar    
  21 N21            8.6194    -0.6344    -0.2225 N.am    
  22 O22            6.4763    -1.1437    -0.4862 O.2     
  23 C23            9.1557    -1.8772    -2.2595 C.3     
  24 C24            9.0409    -1.9405    -0.7351 C.3     
  25 C25            0.9321     4.9140    -1.8586 C.3     
  26 C26            1.6734     6.1640    -2.3393 C.3     
  27 O27            2.0221     6.9828    -1.2216 O.3     
  28 C28            2.8931     6.3670    -0.2769 C.3     
  29 C29            3.8485     5.4180    -1.0080 C.3     
  30 F30           -3.1287     2.0449    -1.3436 F       
  31 F31            1.6660     0.3666    -3.3925 F       
  32 C32           10.3997    -2.3090    -0.1362 C.3     
  33 H33            4.9183     0.5801    -0.3975 H       
  34 H34            7.5614     1.8010    -0.1707 H       
  35 H35            6.1984    -0.8605     2.0607 H       
  36 H36            5.9471     0.2122     3.4588 H       
  37 H37            4.9189     0.3761     2.0151 H       
  38 H38            9.0251     1.5705     1.8899 H       
  39 H39            8.3387     0.8549     3.3681 H       
  40 H40            8.6159    -0.1613     1.9333 H       
  41 H41            5.5244     2.7950     1.8585 H       
  42 H42            6.5526     2.6311     3.3022 H       
  43 H43            7.2353     3.2817     1.7926 H       
  44 H44           -0.6618    -0.6636    -3.9632 H       
  45 H45           -2.8134     0.0911    -3.0424 H       
  46 H46           -0.8124     3.0911    -0.7613 H       
  47 H47            9.2828     0.0029     0.0854 H       
  48 H48            9.4693    -2.8490    -2.6408 H       
  49 H49            8.1877    -1.6146    -2.6861 H       
  50 H50            9.8919    -1.1230    -2.5374 H       
  51 H51            8.3047    -2.6947    -0.4571 H       
  52 H52            0.2631     4.5632    -2.6444 H       
  53 H53            0.3524     5.1551    -0.9676 H       
  54 H54            2.5796     5.8670    -2.8672 H       
  55 H55            1.0309     6.7285    -3.0151 H       
  56 H56            3.4685     7.1343     0.2410 H       
  57 H57            2.3042     5.8035     0.4469 H       
  58 H58            4.7731     5.3204    -0.4391 H       
  59 H59            4.0672     5.8124    -2.0003 H       
  60 H60           11.1359    -1.5548    -0.4141 H       
  61 H61           10.3180    -2.3541     0.9498 H       
  62 H62           10.7133    -3.2808    -0.5175 H       
@<TRIPOS>BOND
   1    1    2 ar
   2    1    3 1
   3    1   20 ar
   4    2   17 ar
   5    2   31 1
   6    3    4 1
   7    3    7 2
   8    4    5 1
   9    4   25 1
  10    5    6 2
  11    5   29 1
  12    6    7 1
  13    6    8 1
  14    8    9 2
  15    8   10 am
  16   10   11 1
  17   10   33 1
  18   11   13 1
  19   11   12 1
  20   11   34 1
  21   12   21 am
  22   12   22 2
  23   13   14 1
  24   13   15 1
  25   13   16 1
  26   14   35 1
  27   14   36 1
  28   14   37 1
  29   15   38 1
  30   15   39 1
  31   15   40 1
  32   16   41 1
  33   16   42 1
  34   16   43 1
  35   17   18 ar
  36   17   44 1
  37   18   19 ar
  38   18   45 1
  39   19   20 ar
  40   19   30 1
  41   20   46 1
  42   21   24 1
  43   21   47 1
  44   23   24 1
  45   23   48 1
  46   23   49 1
  47   23   50 1
  48   24   32 1
  49   24   51 1
  50   25   26 1
  51   25   52 1
  52   25   53 1
  53   26   27 1
  54   26   54 1
  55   26   55 1
  56   27   28 1
  57   28   29 1
  58   28   56 1
  59   28   57 1
  60   29   58 1
  61   29   59 1
  62   32   60 1
  63   32   61 1
  64   32   62 1

#	End of record

