#	Name: ASD01040048
#	Creating user name:	WinNT
#	Creation time:	15. 06. 2019 18:58

#	Modifying user name:	WinNT
#	Modification time:	15. 06. 2019 18:58

#	Program:	/corina/corina34_cracker 3.40 0067  02.08.2006

@<TRIPOS>MOLECULE
ASD01040048
  51   54    0    0    0
SMALL
NO_CHARGES


@<TRIPOS>ATOM
   1 O1            -0.0163     1.3545     0.0095 O.3     
   2 C2             0.0021    -0.0041     0.0020 C.ar    
   3 C3             0.0058    -0.6902    -1.2051 C.ar    
   4 C4             0.0245    -2.0689    -1.2160 C.ar    
   5 C5             0.0401    -2.7740    -0.0132 C.ar    
   6 C6             0.0607    -4.2565    -0.0214 C.2     
   7 C7            -1.0952    -5.0110    -0.5625 C.ar    
   8 C8            -2.3349    -4.9394     0.0717 C.ar    
   9 C9            -3.4080    -5.6423    -0.4339 C.ar    
  10 C10           -3.2550    -6.4211    -1.5731 C.ar    
  11 O11           -4.3142    -7.1126    -2.0689 O.3     
  12 C12           -2.0218    -6.4945    -2.2070 C.ar    
  13 C13           -0.9464    -5.7891    -1.7098 C.ar    
  14 C14            1.1231    -4.9138     0.4598 C.2     
  15 C15            2.3101    -4.1635     1.0221 C.3     
  16 C16            3.5827    -4.6930     0.3527 C.3     
  17 C17            3.6555    -6.2107     0.5284 C.3     
  18 C18            2.4809    -6.8733    -0.1933 C.3     
  19 C19            2.6080    -8.3714    -0.0900 C.ar    
  20 C20            2.6175    -8.9802     1.1510 C.ar    
  21 C21            2.7340   -10.3544     1.2458 C.ar    
  22 C22            2.8406   -11.1197     0.0996 C.ar    
  23 C23            2.8302   -10.5109    -1.1414 C.ar    
  24 C24            2.7094    -9.1371    -1.2364 C.ar    
  25 C25            1.1645    -6.4259     0.4608 C.3     
  26 C26            0.0368    -2.0820     1.1973 C.ar    
  27 C27            0.0230    -0.7032     1.2014 C.ar    
  28 H28            0.8616     1.7598     0.0033 H       
  29 H29           -0.0063    -0.1435    -2.1364 H       
  30 H30            0.0266    -2.6021    -2.1553 H       
  31 H31           -2.4544    -4.3343     0.9583 H       
  32 H32           -4.3685    -5.5872     0.0568 H       
  33 H33           -4.8378    -6.6197    -2.7154 H       
  34 H34           -1.9059    -7.1013    -3.0929 H       
  35 H35            0.0115    -5.8431    -2.2059 H       
  36 H36            2.2025    -3.0990     0.8137 H       
  37 H37            2.3685    -4.3246     2.0986 H       
  38 H38            3.5623    -4.4506    -0.7098 H       
  39 H39            4.4554    -4.2312     0.8145 H       
  40 H40            4.5922    -6.5793     0.1102 H       
  41 H41            3.6129    -6.4550     1.5898 H       
  42 H42            2.4868    -6.5795    -1.2430 H       
  43 H43            2.5342    -8.3823     2.0465 H       
  44 H44            2.7421   -10.8300     2.2154 H       
  45 H45            2.9324   -12.1933     0.1737 H       
  46 H46            2.9138   -11.1088    -2.0369 H       
  47 H47            2.6974    -8.6618    -2.2061 H       
  48 H48            1.1187    -6.7927     1.4863 H       
  49 H49            0.3205    -6.8157    -0.1083 H       
  50 H50            0.0489    -2.6253     2.1306 H       
  51 H51            0.0242    -0.1666     2.1387 H       
@<TRIPOS>BOND
   1    1    2 1
   2    1   28 1
   3    2   27 ar
   4    2    3 ar
   5    3    4 ar
   6    3   29 1
   7    4    5 ar
   8    4   30 1
   9    5   26 ar
  10    5    6 1
  11    6    7 1
  12    6   14 2
  13    7    8 ar
  14    7   13 ar
  15    8    9 ar
  16    8   31 1
  17    9   10 ar
  18    9   32 1
  19   10   11 1
  20   10   12 ar
  21   11   33 1
  22   12   34 1
  23   12   13 ar
  24   13   35 1
  25   14   25 1
  26   14   15 1
  27   15   16 1
  28   15   36 1
  29   15   37 1
  30   16   17 1
  31   16   38 1
  32   16   39 1
  33   17   18 1
  34   17   40 1
  35   17   41 1
  36   18   19 1
  37   18   42 1
  38   18   25 1
  39   19   24 ar
  40   19   20 ar
  41   20   21 ar
  42   20   43 1
  43   21   22 ar
  44   21   44 1
  45   22   23 ar
  46   22   45 1
  47   23   46 1
  48   23   24 ar
  49   24   47 1
  50   25   48 1
  51   25   49 1
  52   26   50 1
  53   26   27 ar
  54   27   51 1

#	End of record

