#	Name: ASD01814027
#	Creating user name:	WinNT
#	Creation time:	15. 06. 2019 19:31

#	Modifying user name:	WinNT
#	Modification time:	15. 06. 2019 19:31

#	Program:	/corina/corina34_cracker 3.40 0067  02.08.2006

@<TRIPOS>MOLECULE
ASD01814027
  52   55    0    0    0
SMALL
NO_CHARGES


@<TRIPOS>ATOM
   1 C1             1.3779     2.4414    -0.4417 C.ar    
   2 C2             1.2050     1.0769    -0.2691 C.ar    
   3 C3             2.2838     0.2193    -0.3038 C.ar    
   4 C4             3.5652     0.7197    -0.5146 C.ar    
   5 C5             3.7410     2.1033    -0.6902 C.ar    
   6 C6             2.6395     2.9617    -0.6523 C.ar    
   7 N7             4.6509    -0.1288    -0.5506 N.pl3   
   8 C8             5.9030     0.3031    -0.7493 C.2     
   9 C9             6.1997     1.6382    -0.9341 C.2     
  10 C10            5.1029     2.6201    -0.9125 C.2     
  11 F11            2.8074     4.2916    -0.8209 F       
  12 O12            5.3127     3.8100    -1.0709 O.2     
  13 C13            7.5873     2.0724    -1.1483 C.2     
  14 O14            7.8644     3.3795    -1.3276 O.3     
  15 O15            8.4851     1.2530    -1.1638 O.2     
  16 C16            4.4256    -1.5642    -0.3633 C.3     
  17 C17            4.1794    -2.2129    -1.7010 C.ar    
  18 C18            5.2424    -2.7099    -2.4328 C.ar    
  19 C19            5.0204    -3.3054    -3.6588 C.ar    
  20 C20            3.7273    -3.4048    -4.1570 C.ar    
  21 C21            2.6617    -2.9044    -3.4192 C.ar    
  22 C22            2.8904    -2.3148    -2.1915 C.ar    
  23 N23            3.4991    -4.0061    -5.3970 N.pl3   
  24 C24            4.1690    -5.1777    -5.7359 C.ar    
  25 C25            4.9429    -5.8346    -4.7846 C.ar    
  26 C26            5.6074    -6.9936    -5.1145 C.ar    
  27 C27            5.5055    -7.5144    -6.4104 C.ar    
  28 C28            4.7257    -6.8524    -7.3689 C.ar    
  29 C29            4.0581    -5.6948    -7.0296 C.ar    
  30 O30            3.3007    -5.0500    -7.9571 O.3     
  31 C31            6.2138    -8.7499    -6.7644 C.2     
  32 C32            7.0520    -9.4599    -5.7327 C.3     
  33 O33            6.1245    -9.1998    -7.8875 O.2     
  34 H34            0.5220     3.0996    -0.4159 H       
  35 H35            0.2136     0.6811    -0.1051 H       
  36 H36            2.1344    -0.8415    -0.1671 H       
  37 H37            6.7073    -0.4174    -0.7650 H       
  38 H38            8.7917     3.6168    -1.4649 H       
  39 H39            5.3038    -2.0121     0.1016 H       
  40 H40            3.5578    -1.7150     0.2788 H       
  41 H41            6.2474    -2.6320    -2.0451 H       
  42 H42            5.8511    -3.6930    -4.2299 H       
  43 H43            1.6552    -2.9800    -3.8035 H       
  44 H44            2.0625    -1.9259    -1.6173 H       
  45 H45            2.8737    -3.6069    -6.0218 H       
  46 H46            5.0226    -5.4338    -3.7848 H       
  47 H47            6.2078    -7.5013    -4.3741 H       
  48 H48            4.6445    -7.2507    -8.3694 H       
  49 H49            2.3786    -5.3401    -7.9824 H       
  50 H50            6.4353   -10.1823    -5.1981 H       
  51 H51            7.8737    -9.9786    -6.2266 H       
  52 H52            7.4533    -8.7323    -5.0273 H       
@<TRIPOS>BOND
   1    1    2 ar
   2    1    6 ar
   3    1   34 1
   4    2    3 ar
   5    2   35 1
   6    3    4 ar
   7    3   36 1
   8    4    5 ar
   9    4    7 1
  10    5    6 ar
  11    5   10 1
  12    6   11 1
  13    7    8 1
  14    7   16 1
  15    8    9 2
  16    8   37 1
  17    9   10 1
  18    9   13 1
  19   10   12 2
  20   13   14 1
  21   13   15 2
  22   14   38 1
  23   16   17 1
  24   16   39 1
  25   16   40 1
  26   17   18 ar
  27   17   22 ar
  28   18   19 ar
  29   18   41 1
  30   19   20 ar
  31   19   42 1
  32   20   21 ar
  33   20   23 1
  34   21   22 ar
  35   21   43 1
  36   22   44 1
  37   23   24 1
  38   23   45 1
  39   24   25 ar
  40   24   29 ar
  41   25   26 ar
  42   25   46 1
  43   26   27 ar
  44   26   47 1
  45   27   28 ar
  46   27   31 1
  47   28   29 ar
  48   28   48 1
  49   29   30 1
  50   30   49 1
  51   31   32 1
  52   31   33 2
  53   32   50 1
  54   32   51 1
  55   32   52 1

#	End of record

