#	Name: ASD01881844
#	Creating user name:	WinNT
#	Creation time:	15. 06. 2019 19:43

#	Modifying user name:	WinNT
#	Modification time:	15. 06. 2019 19:43

#	Program:	/corina/corina34_cracker 3.40 0067  02.08.2006

@<TRIPOS>MOLECULE
ASD01881844
  40   43    0    0    0
SMALL
NO_CHARGES


@<TRIPOS>ATOM
   1 N1            -0.0154     1.2845     0.0131 N.pl3   
   2 N2             0.0018    -0.0034    -0.0050 N.2     
   3 N3             1.2029    -0.4643    -0.0252 N.2     
   4 C4             2.0739     0.5649    -0.0209 C.ar    
   5 C5             1.2843     1.7302     0.0044 C.ar    
   6 C6             3.4668     0.6762    -0.0350 C.ar    
   7 C7             4.0484     1.9286    -0.0239 C.ar    
   8 C8             3.2562     3.0740     0.0012 C.ar    
   9 C9             1.8926     2.9787     0.0144 C.ar    
  10 O10            5.4033     2.0444    -0.0370 O.3     
  11 C11            5.9405     3.3642    -0.1452 C.3     
  12 C12            6.0180     3.9988     1.2449 C.3     
  13 C13            7.3217     3.2967    -0.7442 C.ar    
  14 C14            7.8172     2.0834    -1.1838 C.ar    
  15 C15            9.0887     2.0323    -1.7337 C.ar    
  16 C16            9.8176     3.2087    -1.8213 C.ar    
  17 C17            9.2564     4.3845    -1.3609 C.ar    
  18 N18            8.0415     4.3966    -0.8480 N.ar    
  19 C19           -1.2132     2.1279     0.0332 C.3     
  20 C20           -1.6198     2.4018     1.4825 C.3     
  21 C21           -2.7848     3.3649     1.7193 C.3     
  22 C22           -2.9739     1.8643     1.9499 C.3     
  23 Br23           4.5467    -0.8758    -0.0684 Br      
  24 H24            3.7241     4.0474     0.0100 H       
  25 H25            1.2886     3.8738     0.0336 H       
  26 H26            5.2962     3.9675    -0.7846 H       
  27 H27            6.6623     3.3955     1.8843 H       
  28 H28            6.4278     5.0054     1.1623 H       
  29 H29            5.0190     4.0476     1.6781 H       
  30 H30            7.2214     1.1866    -1.0996 H       
  31 H31            9.5019     1.0984    -2.0852 H       
  32 H32           10.8116     3.2060    -2.2438 H       
  33 H33            9.8176     5.3050    -1.4256 H       
  34 H34           -1.0014     3.0716    -0.4694 H       
  35 H35           -2.0263     1.6164    -0.4819 H       
  36 H36           -0.8045     2.4106     2.2059 H       
  37 H37           -2.7361     4.0071     2.5988 H       
  38 H38           -3.2615     3.8034     0.8427 H       
  39 H39           -3.5750     1.3155     1.2250 H       
  40 H40           -3.0495     1.5191     2.9811 H       
@<TRIPOS>BOND
   1    1    2 1
   2    1    5 1
   3    1   19 1
   4    2    3 2
   5    3    4 1
   6    4    5 ar
   7    4    6 ar
   8    5    9 ar
   9    6    7 ar
  10    6   23 1
  11    7    8 ar
  12    7   10 1
  13    8    9 ar
  14    8   24 1
  15    9   25 1
  16   10   11 1
  17   11   12 1
  18   11   13 1
  19   11   26 1
  20   12   27 1
  21   12   28 1
  22   12   29 1
  23   13   14 ar
  24   13   18 ar
  25   14   15 ar
  26   14   30 1
  27   15   16 ar
  28   15   31 1
  29   16   17 ar
  30   16   32 1
  31   17   18 ar
  32   17   33 1
  33   19   20 1
  34   19   34 1
  35   19   35 1
  36   20   21 1
  37   20   22 1
  38   20   36 1
  39   21   22 1
  40   21   37 1
  41   21   38 1
  42   22   39 1
  43   22   40 1

#	End of record

