#	Name: ASD03090825
#	Creating user name:	WinNT
#	Creation time:	15. 06. 2019 20:29

#	Modifying user name:	WinNT
#	Modification time:	15. 06. 2019 20:29

#	Program:	/corina/corina34_cracker 3.40 0067  02.08.2006

@<TRIPOS>MOLECULE
ASD03090825
  40   42    0    0    0
SMALL
NO_CHARGES


@<TRIPOS>ATOM
   1 C1            -0.0183     1.5030     0.0798 C.2     
   2 C2             0.0022    -0.0037     0.0999 C.3     
   3 C3             1.4515    -0.4940     0.1037 C.3     
   4 O4             1.0269     2.1255     0.0695 O.2     
   5 N5            -1.1762     2.1507     0.0679 N.2     
   6 C6            -0.7097    -0.5067     1.3574 C.3     
   7 C7            -0.7145    -0.5401    -1.1409 C.3     
   8 S8             0.1650     4.5422     0.0393 S.3     
   9 C9            -1.1944     3.4850     0.0500 C.2     
  10 N10           -2.2863     4.2876     0.0362 N.pl3   
  11 C11           -2.0655     5.6297     0.0185 C.2     
  12 C12           -0.7996     6.0286     0.0165 C.2     
  13 C13           -0.2900     7.4467    -0.0014 C.3     
  14 O14           -7.2948     1.9665     0.0269 O.3     
  15 C15           -6.8723     0.6193     0.3090 C.3     
  16 O16           -5.5120     0.5817    -0.1614 O.3     
  17 C17           -5.0583     1.8659    -0.0682 C.ar    
  18 C18           -6.1546     2.7180     0.0476 C.ar    
  19 C19           -3.7761     2.3878    -0.0719 C.ar    
  20 C20           -3.5847     3.7585     0.0394 C.ar    
  21 C21           -4.6787     4.6050     0.1545 C.ar    
  22 C22           -5.9592     4.0850     0.1578 C.ar    
  23 F23           -6.9242     0.3655     1.6838 F       
  24 F24           -7.6602    -0.3000    -0.3920 F       
  25 H25            1.9620    -0.1119     0.9877 H       
  26 H26            1.4663    -1.5838     0.1183 H       
  27 H27            1.9586    -0.1357    -0.7921 H       
  28 H28           -1.7422    -0.1573     1.3547 H       
  29 H29           -0.6949    -1.5965     1.3719 H       
  30 H30           -0.1992    -0.1245     2.2414 H       
  31 H31           -0.2073    -0.1817    -2.0367 H       
  32 H32           -0.6997    -1.6299    -1.1263 H       
  33 H33           -1.7470    -0.1907    -1.1436 H       
  34 H34           -2.8815     6.3371     0.0064 H       
  35 H35            0.7999     7.4411     0.0011 H       
  36 H36           -0.6487     7.9503    -0.8991 H       
  37 H37           -0.6528     7.9743     0.8807 H       
  38 H38           -2.9250     1.7290    -0.1613 H       
  39 H39           -4.5292     5.6710     0.2410 H       
  40 H40           -6.8090     4.7455     0.2476 H       
@<TRIPOS>BOND
   1    1    2 1
   2    1    4 2
   3    1    5 1
   4    2    3 1
   5    2    6 1
   6    2    7 1
   7    3   25 1
   8    3   26 1
   9    3   27 1
  10    5    9 2
  11    6   28 1
  12    6   29 1
  13    6   30 1
  14    7   31 1
  15    7   32 1
  16    7   33 1
  17    8    9 1
  18    8   12 1
  19    9   10 1
  20   10   11 1
  21   10   20 1
  22   11   12 2
  23   11   34 1
  24   12   13 1
  25   13   35 1
  26   13   36 1
  27   13   37 1
  28   14   15 1
  29   14   18 1
  30   15   16 1
  31   15   23 1
  32   15   24 1
  33   16   17 1
  34   17   18 ar
  35   17   19 ar
  36   18   22 ar
  37   19   20 ar
  38   19   38 1
  39   20   21 ar
  40   21   22 ar
  41   21   39 1
  42   22   40 1

#	End of record

