#	Name: ASD01916263
#	Creating user name:	WinNT
#	Creation time:	15. 06. 2019 20:07

#	Modifying user name:	WinNT
#	Modification time:	15. 06. 2019 20:07

#	Program:	/corina/corina34_cracker 3.40 0067  02.08.2006

@<TRIPOS>MOLECULE
ASD01916263
  40   42    0    0    0
SMALL
NO_CHARGES


@<TRIPOS>ATOM
   1 C1             4.1368     1.5702     2.3557 C.3     
   2 C2             5.4135     3.8622    -7.1478 C.ar    
   3 C3             6.0191     3.9876    -5.9102 C.ar    
   4 C4             5.4573     3.3907    -4.7984 C.ar    
   5 C5             4.2754     2.6588    -4.9228 C.ar    
   6 C6             3.6661     2.5335    -6.1718 C.ar    
   7 C7             4.2375     3.1358    -7.2802 C.ar    
   8 O8             3.6466     3.0163    -8.4981 O.3     
   9 C9             2.5681     3.7995    -8.7637 C.ar    
  10 C10            1.9209     3.7296    -9.9931 C.ar    
  11 N11            0.8743     4.5081   -10.2128 N.ar    
  12 C12            0.4442     5.3407    -9.2862 C.ar    
  13 N13            1.0304     5.4363    -8.1097 N.ar    
  14 C14            2.0793     4.6876    -7.8109 C.ar    
  15 Cl15           7.4892     4.8976    -5.7543 Cl      
  16 C16            3.6715     2.0182    -3.7354 C.2     
  17 N17            4.2622     2.1403    -2.5301 N.am    
  18 O18            2.6421     1.3812    -3.8460 O.2     
  19 C19            3.6396     1.6276    -1.3941 C.ar    
  20 C20            4.1954     1.8580    -0.1408 C.ar    
  21 C21            2.3987     0.6134     0.8065 C.ar    
  22 C22            1.8997     0.4278    -0.4679 C.ar    
  23 N23            2.5210     0.9302    -1.5174 N.ar    
  24 C24            3.5665     1.3434     0.9794 C.ar    
  25 C25            3.5554     2.8578     2.9429 C.3     
  26 H26            3.8791     0.7288     2.9990 H       
  27 H27            5.2212     1.6582     2.2897 H       
  28 H28            5.8547     4.3343    -8.0131 H       
  29 H29            5.9327     3.4897    -3.8337 H       
  30 H30            2.7517     1.9680    -6.2739 H       
  31 H31            2.2682     3.0498   -10.7572 H       
  32 H32           -0.4130     5.9628    -9.4971 H       
  33 H33            2.5548     4.7711    -6.8449 H       
  34 H34            5.1208     2.5851    -2.4536 H       
  35 H35            5.1059     2.4305    -0.0428 H       
  36 H36            1.8833     0.1984     1.6600 H       
  37 H37            0.9913    -0.1396    -0.6074 H       
  38 H38            3.9679     3.0218     3.9384 H       
  39 H39            3.8131     3.6992     2.2997 H       
  40 H40            2.4710     2.7698     3.0090 H       
@<TRIPOS>BOND
   1    1   25 1
   2    1   24 1
   3    1   26 1
   4    1   27 1
   5    2    3 ar
   6    2    7 ar
   7    2   28 1
   8    3    4 ar
   9    3   15 1
  10    4    5 ar
  11    4   29 1
  12    5    6 ar
  13    5   16 1
  14    6    7 ar
  15    6   30 1
  16    7    8 1
  17    8    9 1
  18    9   10 ar
  19    9   14 ar
  20   10   11 ar
  21   10   31 1
  22   11   12 ar
  23   12   13 ar
  24   12   32 1
  25   13   14 ar
  26   14   33 1
  27   16   17 am
  28   16   18 2
  29   17   19 1
  30   17   34 1
  31   19   20 ar
  32   19   23 ar
  33   20   24 ar
  34   20   35 1
  35   21   22 ar
  36   21   24 ar
  37   21   36 1
  38   22   23 ar
  39   22   37 1
  40   25   38 1
  41   25   39 1
  42   25   40 1

#	End of record

