#	Name: ASD05503067
#	Creating user name:	WinNT
#	Creation time:	15. 06. 2019 21:01

#	Modifying user name:	WinNT
#	Modification time:	15. 06. 2019 21:01

#	Program:	/corina/corina34_cracker 3.40 0067  02.08.2006

@<TRIPOS>MOLECULE
ASD05503067
  45   46    0    0    0
SMALL
NO_CHARGES


@<TRIPOS>ATOM
   1 C1            -0.1222     1.3034    -0.0175 C.ar    
   2 C2            -0.0712    -0.0668     0.2049 C.ar    
   3 C3             1.1488    -0.7274     0.1791 C.ar    
   4 C4             2.3142    -0.0165    -0.0689 C.ar    
   5 C5             2.2563     1.3541    -0.2906 C.ar    
   6 C6             1.0403     2.0086    -0.2642 C.ar    
   7 N7             3.5458    -0.6785    -0.0952 N.am    
   8 C8             3.6287    -1.9281    -0.5934 C.2     
   9 C9             4.9445    -2.5893    -0.7145 C.ar    
  10 C10            6.1038    -1.9228    -0.3140 C.ar    
  11 C11            7.3291    -2.5459    -0.4298 C.ar    
  12 C12            7.4114    -3.8287    -0.9420 C.ar    
  13 C13            6.2673    -4.4957    -1.3415 C.ar    
  14 C14            5.0336    -3.8868    -1.2251 C.ar    
  15 Br15           3.4704    -4.7998    -1.7717 Br      
  16 N16           -1.2487    -0.7800     0.4551 N.am    
  17 C17           -2.2445    -0.2100     1.1621 C.2     
  18 C18           -3.4689    -1.0121     1.5207 C.3     
  19 C19           -4.4373    -0.1358     2.3176 C.3     
  20 C20           -5.6804    -0.9501     2.6817 C.3     
  21 O21            2.6209    -2.5112    -0.9430 O.2     
  22 C22           -4.1541    -1.4962     0.2412 C.3     
  23 C23           -3.0583    -2.2186     2.3672 C.3     
  24 O24           -2.1553     0.9486     1.5097 O.2     
  25 H25           -1.0719     1.8174    -0.0020 H       
  26 H26            1.1912    -1.7927     0.3521 H       
  27 H27            3.1631     1.9081    -0.4833 H       
  28 H28            0.9979     3.0739    -0.4368 H       
  29 H29            4.3404    -0.2383     0.2450 H       
  30 H30            6.0416    -0.9213     0.0854 H       
  31 H31            8.2265    -2.0310    -0.1201 H       
  32 H32            8.3735    -4.3113    -1.0306 H       
  33 H33            6.3387    -5.4966    -1.7408 H       
  34 H34           -1.3483    -1.6847     0.1197 H       
  35 H35           -3.9491     0.2091     3.2291 H       
  36 H36           -4.7298     0.7238     1.7145 H       
  37 H37           -6.3703    -0.3258     3.2494 H       
  38 H38           -6.1685    -1.2950     1.7702 H       
  39 H39           -5.3878    -1.8097     3.2847 H       
  40 H40           -3.4642    -2.1206    -0.3265 H       
  41 H41           -5.0397    -2.0764     0.5006 H       
  42 H42           -4.4466    -0.6367    -0.3618 H       
  43 H43           -2.5701    -1.8737     3.2787 H       
  44 H44           -3.9439    -2.7988     2.6266 H       
  45 H45           -2.3684    -2.8429     1.7994 H       
@<TRIPOS>BOND
   1    1    2 ar
   2    1    6 ar
   3    1   25 1
   4    2    3 ar
   5    2   16 1
   6    3    4 ar
   7    3   26 1
   8    4    5 ar
   9    4    7 1
  10    5    6 ar
  11    5   27 1
  12    6   28 1
  13    7    8 am
  14    7   29 1
  15    8    9 1
  16    8   21 2
  17    9   10 ar
  18    9   14 ar
  19   10   11 ar
  20   10   30 1
  21   11   12 ar
  22   11   31 1
  23   12   13 ar
  24   12   32 1
  25   13   14 ar
  26   13   33 1
  27   14   15 1
  28   16   17 am
  29   16   34 1
  30   17   18 1
  31   17   24 2
  32   18   19 1
  33   18   22 1
  34   18   23 1
  35   19   20 1
  36   19   35 1
  37   19   36 1
  38   20   37 1
  39   20   38 1
  40   20   39 1
  41   22   40 1
  42   22   41 1
  43   22   42 1
  44   23   43 1
  45   23   44 1
  46   23   45 1

#	End of record

