#	Name: ASD01916639
#	Creating user name:	WinNT
#	Creation time:	15. 06. 2019 20:07

#	Modifying user name:	WinNT
#	Modification time:	15. 06. 2019 20:07

#	Program:	/corina/corina34_cracker 3.40 0067  02.08.2006

@<TRIPOS>MOLECULE
ASD01916639
  23   24    0    0    0
SMALL
NO_CHARGES


@<TRIPOS>ATOM
   1 C1            -0.0170     1.4051     0.0098 C.2     
   2 C2             0.0021    -0.0041     0.0020 C.2     
   3 C3             1.1968    -0.6541    -0.0129 C.2     
   4 C4             2.3912     0.0853    -0.0203 C.2     
   5 C5             2.3569     1.4343    -0.0123 C.2     
   6 N6             1.1651     2.0992     0.0022 N.pl3   
   7 N7            -1.0090     2.2842     0.0293 N.2     
   8 C8            -0.5004     3.5187     0.0287 C.2     
   9 C9             0.8476     3.4301     0.0128 C.2     
  10 C10           -1.2972     4.7977     0.0476 C.3     
  11 C11           -2.2868     4.7994    -1.1192 C.3     
  12 C12           -3.0651     6.0487    -1.1008 C.1     
  13 C13           -3.6858     7.0450    -1.0861 C.1     
  14 H14           -0.9225    -0.5622     0.0082 H       
  15 H15            1.2270    -1.7337    -0.0186 H       
  16 H16            3.3412    -0.4283    -0.0321 H       
  17 H17            3.2812     1.9930    -0.0178 H       
  18 H18            1.5443     4.2554     0.0107 H       
  19 H19           -1.8439     4.8714     0.9877 H       
  20 H20           -0.6219     5.6480    -0.0476 H       
  21 H21           -1.7402     4.7257    -2.0594 H       
  22 H22           -2.9622     3.9491    -1.0240 H       
  23 H23           -4.2410     7.9362    -1.0729 H       
@<TRIPOS>BOND
   1    1    2 1
   2    1    6 1
   3    1    7 2
   4    2    3 2
   5    2   14 1
   6    3    4 1
   7    3   15 1
   8    4    5 2
   9    4   16 1
  10    5    6 1
  11    5   17 1
  12    6    9 1
  13    7    8 1
  14    8    9 2
  15    8   10 1
  16    9   18 1
  17   10   11 1
  18   10   19 1
  19   10   20 1
  20   11   12 1
  21   11   21 1
  22   11   22 1
  23   12   13 3
  24   13   23 1

#	End of record

