#	Name: ASD04590432
#	Creating user name:	WinNT
#	Creation time:	15. 06. 2019 20:50

#	Modifying user name:	WinNT
#	Modification time:	15. 06. 2019 20:50

#	Program:	/corina/corina34_cracker 3.40 0067  02.08.2006

@<TRIPOS>MOLECULE
ASD04590432
  52   56    0    0    0
SMALL
NO_CHARGES


@<TRIPOS>ATOM
   1 C1            -0.0167     1.3832     0.0096 C.ar    
   2 C2             0.0021    -0.0041     0.0020 C.ar    
   3 C3             2.4020     0.0223    -0.0208 C.ar    
   4 C4             2.3769     1.4283    -0.0130 C.ar    
   5 C5             1.1624     2.0986     0.0022 C.ar    
   6 N6             3.7040    -0.3552    -0.0358 N.2     
   7 C7             4.4709     0.7083    -0.0376 C.2     
   8 N8             3.6969     1.8375    -0.0239 N.pl3   
   9 C9             5.9482     0.6906    -0.0519 C.2     
  10 C10            6.7657    -0.4631    -0.0662 C.2     
  11 C11            8.0579    -0.0539    -0.0763 C.2     
  12 N12            8.0646     1.3050    -0.0688 N.pl3   
  13 N13            6.7360     1.7480    -0.0593 N.2     
  14 N14            6.3188    -1.7944    -0.0690 N.am    
  15 C15            7.2108    -2.8046    -0.0833 C.2     
  16 O16            8.4027    -2.5633    -0.0938 O.2     
  17 C17            6.7413    -4.2032    -0.0862 C.ar    
  18 C18            1.1969    -0.6870    -0.0131 C.ar    
  19 C19            6.0899    -6.1871     1.1097 C.ar    
  20 C20            5.8597    -6.8325    -0.0917 C.ar    
  21 C21            6.0717    -6.1760    -1.2904 C.ar    
  22 C22            6.5111    -4.8655    -1.2969 C.ar    
  23 C23            6.5294    -4.8767     1.1217 C.ar    
  24 S24           -1.5158    -0.8988     0.0124 S.o2    
  25 N25           -1.9539    -1.1392    -1.5665 N.am    
  26 C26           -1.5138    -2.3360    -2.3009 C.3     
  27 F27            6.7171    -4.2258    -2.4689 F       
  28 F28            6.7541    -4.2482     2.2963 F       
  29 O29           -1.2216    -2.1820     0.5470 O.2     
  30 O30           -2.4906    -0.0288     0.5712 O.2     
  31 C31           -2.7999    -0.1654    -2.2745 C.3     
  32 C32           -3.9623    -0.9205    -2.9291 C.3     
  33 O33           -3.4422    -1.9976    -3.7123 O.3     
  34 C34           -2.7414    -2.9810    -2.9541 C.3     
  35 H35           -0.9614     1.9066     0.0170 H       
  36 H36            1.1403     3.1784     0.0079 H       
  37 H37            4.0155     2.7537    -0.0221 H       
  38 H38            8.9276    -0.6941    -0.0879 H       
  39 H39            8.8529     1.8702    -0.0726 H       
  40 H40            5.3681    -1.9869    -0.0606 H       
  41 H41            1.2037    -1.7669    -0.0186 H       
  42 H42            5.9218    -6.7072     2.0412 H       
  43 H43            5.5167    -7.8566    -0.0938 H       
  44 H44            5.8898    -6.6875    -2.2240 H       
  45 H45           -0.7957    -2.0513    -3.0699 H       
  46 H46           -1.0522    -3.0415    -1.6100 H       
  47 H47           -3.1896     0.5658    -1.5663 H       
  48 H48           -2.2135     0.3415    -3.0409 H       
  49 H49           -4.6202    -1.3172    -2.1559 H       
  50 H50           -4.5224    -0.2408    -3.5713 H       
  51 H51           -2.4168    -3.7860    -3.6135 H       
  52 H52           -3.3990    -3.3834    -2.1835 H       
@<TRIPOS>BOND
   1    1    2 ar
   2    1    5 ar
   3    1   35 1
   4    2   18 ar
   5    2   24 1
   6    3    4 ar
   7    3    6 1
   8    3   18 ar
   9    4    5 ar
  10    4    8 1
  11    5   36 1
  12    6    7 2
  13    7    8 1
  14    7    9 1
  15    8   37 1
  16    9   10 1
  17    9   13 2
  18   10   11 2
  19   10   14 1
  20   11   12 1
  21   11   38 1
  22   12   13 1
  23   12   39 1
  24   14   15 am
  25   14   40 1
  26   15   16 2
  27   15   17 1
  28   17   23 ar
  29   17   22 ar
  30   18   41 1
  31   19   20 ar
  32   19   23 ar
  33   19   42 1
  34   20   21 ar
  35   20   43 1
  36   21   22 ar
  37   21   44 1
  38   22   27 1
  39   23   28 1
  40   24   25 am
  41   24   29 2
  42   24   30 2
  43   25   26 1
  44   25   31 1
  45   26   34 1
  46   26   45 1
  47   26   46 1
  48   31   32 1
  49   31   47 1
  50   31   48 1
  51   32   33 1
  52   32   49 1
  53   32   50 1
  54   33   34 1
  55   34   51 1
  56   34   52 1

#	End of record

