#	Name: ASD01912062
#	Creating user name:	WinNT
#	Creation time:	15. 06. 2019 19:58

#	Modifying user name:	WinNT
#	Modification time:	15. 06. 2019 19:58

#	Program:	/corina/corina34_cracker 3.40 0067  02.08.2006

@<TRIPOS>MOLECULE
ASD01912062
  62   65    0    0    0
SMALL
NO_CHARGES


@<TRIPOS>ATOM
   1 C1            -0.0166     1.3748     0.0096 C.ar    
   2 C2             0.0021    -0.0041     0.0020 C.ar    
   3 C3             1.2191    -0.6831    -0.0132 C.ar    
   4 C4             2.4138     0.0339    -0.0208 C.ar    
   5 C5             2.3889     1.4132    -0.0131 C.ar    
   6 C6             1.1754     2.0866     0.0020 C.ar    
   7 C7             1.2426    -2.1669    -0.0209 C.2     
   8 N8             2.3158    -2.9249     0.0581 N.2     
   9 C9             0.1198    -3.0130    -0.1079 C.2     
  10 C10            0.5607    -4.2897    -0.0840 C.2     
  11 N11            1.9070    -4.2640     0.0175 N.pl3   
  12 C12           -0.2991    -5.5254    -0.1543 C.3     
  13 C13            2.7873    -5.4336     0.0742 C.3     
  14 C14            3.1957    -5.8232    -1.3231 C.2     
  15 N15            4.0104    -6.8791    -1.5174 N.am    
  16 O16            2.7913    -5.1865    -2.2728 O.2     
  17 C17            4.4212    -7.2764    -2.8726 C.3     
  18 C18            4.5172    -7.6610    -0.3794 C.3     
  19 C19            6.0395    -7.7787    -0.5090 C.3     
  20 N20            6.3746    -8.3199    -1.8329 N.3     
  21 C21            5.9475    -7.4100    -2.8991 C.3     
  22 C22            7.7281    -8.5927    -1.9291 C.ar    
  23 N23            8.2091    -9.0890    -3.0595 N.ar    
  24 N24            8.5130    -8.3462    -0.8905 N.ar    
  25 C25            9.8108    -8.5950    -0.9497 C.ar    
  26 C26           10.3463    -9.1195    -2.1156 C.ar    
  27 C27            9.4976    -9.3604    -3.1846 C.ar    
  28 O28            1.1539     3.4453     0.0095 O.3     
  29 C29            3.6806     2.1894    -0.0208 C.3     
  30 C30           -1.6170    -5.2722     0.5806 C.3     
  31 C31           -0.5882    -5.8629    -1.6184 C.3     
  32 C32           -0.1294     4.0738     0.0251 C.3     
  33 H33           -0.9595     1.9015     0.0169 H       
  34 H34           -0.9255    -0.5573     0.0082 H       
  35 H35            3.3583    -0.4896    -0.0322 H       
  36 H36           -0.9104    -2.6972    -0.1808 H       
  37 H37            0.2239    -6.3591     0.3143 H       
  38 H38            3.6753    -5.1920     0.6583 H       
  39 H39            2.2588    -6.2637     0.5430 H       
  40 H40            3.9654    -8.2331    -3.1277 H       
  41 H41            4.1077    -6.5160    -3.5879 H       
  42 H42            4.2671    -7.1548     0.5530 H       
  43 H43            4.0708    -8.6554    -0.3906 H       
  44 H44            6.4916    -6.7936    -0.3937 H       
  45 H45            6.4198    -8.4466     0.2639 H       
  46 H46            6.2568    -7.8103    -3.8646 H       
  47 H47            6.4043    -6.4320    -2.7472 H       
  48 H48           10.4456    -8.3916    -0.0999 H       
  49 H49           11.4025    -9.3317    -2.1909 H       
  50 H50            9.8831    -9.7686    -4.1072 H       
  51 H51            3.9826     2.3821    -1.0502 H       
  52 H52            3.5383     3.1366     0.4995 H       
  53 H53            4.4551     1.6110     0.4829 H       
  54 H54           -2.2388    -6.1660     0.5297 H       
  55 H55           -1.4110    -5.0318     1.6236 H       
  56 H56           -2.1399    -4.4386     0.1120 H       
  57 H57            0.3507    -6.0432    -2.1419 H       
  58 H58           -1.2101    -6.7566    -1.6692 H       
  59 H59           -1.1112    -5.0292    -2.0870 H       
  60 H60           -0.6901     3.7769    -0.8612 H       
  61 H61           -0.6732     3.7674     0.9187 H       
  62 H62           -0.0036     5.1565     0.0297 H       
@<TRIPOS>BOND
   1    1    2 ar
   2    1    6 ar
   3    1   33 1
   4    2    3 ar
   5    2   34 1
   6    3    4 ar
   7    3    7 1
   8    4    5 ar
   9    4   35 1
  10    5    6 ar
  11    5   29 1
  12    6   28 1
  13    7    8 2
  14    7    9 1
  15    8   11 1
  16    9   10 2
  17    9   36 1
  18   10   11 1
  19   10   12 1
  20   11   13 1
  21   12   30 1
  22   12   31 1
  23   12   37 1
  24   13   14 1
  25   13   38 1
  26   13   39 1
  27   14   15 am
  28   14   16 2
  29   15   17 1
  30   15   18 1
  31   17   21 1
  32   17   40 1
  33   17   41 1
  34   18   19 1
  35   18   42 1
  36   18   43 1
  37   19   20 1
  38   19   44 1
  39   19   45 1
  40   20   21 1
  41   20   22 1
  42   21   46 1
  43   21   47 1
  44   22   23 ar
  45   22   24 ar
  46   23   27 ar
  47   24   25 ar
  48   25   26 ar
  49   25   48 1
  50   26   27 ar
  51   26   49 1
  52   27   50 1
  53   28   32 1
  54   29   51 1
  55   29   52 1
  56   29   53 1
  57   30   54 1
  58   30   55 1
  59   30   56 1
  60   31   57 1
  61   31   58 1
  62   31   59 1
  63   32   60 1
  64   32   61 1
  65   32   62 1

#	End of record

