#	Name: ASD03330184
#	Creating user name:	WinNT
#	Creation time:	15. 06. 2019 20:36

#	Modifying user name:	WinNT
#	Modification time:	15. 06. 2019 20:36

#	Program:	/corina/corina34_cracker 3.40 0067  02.08.2006

@<TRIPOS>MOLECULE
ASD03330184
  75   79    0    0    0
SMALL
NO_CHARGES


@<TRIPOS>ATOM
   1 C1             0.1012     1.4313    -0.0915 C.2     
   2 C2             0.0066     0.2136     0.5121 C.2     
   3 C3             1.3032     2.0797     0.1036 C.2     
   4 C4             2.2033     1.3825     0.8771 C.2     
   5 S5             1.4959    -0.1487     1.3723 S.3     
   6 C6             3.5565     1.8491     1.2355 C.ar    
   7 C7             4.4179     2.3299     0.2462 C.ar    
   8 C8             5.6810     2.7644     0.5876 C.ar    
   9 C9             6.0975     2.7253     1.9083 C.ar    
  10 C10            5.2498     2.2502     2.8944 C.ar    
  11 C11            3.9802     1.8174     2.5673 C.ar    
  12 C12            1.6002     3.4133    -0.4714 C.ar    
  13 C13            1.4852     3.6247    -1.8446 C.ar    
  14 C14            1.9901     4.4626     0.3598 C.ar    
  15 C15            2.2649     5.7020    -0.1811 C.ar    
  16 C16            2.1541     5.9045    -1.5451 C.ar    
  17 C17            1.7626     4.8685    -2.3741 C.ar    
  18 C18           -1.1649    -0.6648     0.4533 C.2     
  19 O19           -2.2838    -0.1939     0.5423 O.2     
  20 N20           -1.0035    -1.9941     0.3005 N.am    
  21 Cl21           2.9181     1.2220     3.8046 Cl      
  22 C22            0.3400    -2.5888     0.2908 C.3     
  23 C23            0.4979    -3.4295    -0.9801 C.3     
  24 C24           -0.6412    -4.4486    -1.0576 C.3     
  25 C25           -1.9817    -3.7136    -1.1281 C.3     
  26 C26           -2.1679    -2.8768     0.1468 C.3     
  27 C27           -0.4702    -5.3001    -2.2891 C.ar    
  28 C28           -1.4019    -5.2365    -3.3083 C.ar    
  29 C29           -1.2450    -6.0176    -4.4379 C.ar    
  30 C30           -0.1561    -6.8619    -4.5487 C.ar    
  31 C31            0.7761    -6.9248    -3.5299 C.ar    
  32 C32            0.6215    -6.1405    -2.4022 C.ar    
  33 C33           -0.6137    -5.3264     0.1671 C.2     
  34 O34            0.3024    -5.2369     0.9569 O.2     
  35 N35           -1.6072    -6.2108     0.3848 N.am    
  36 Cl36           7.6900     3.2739     2.3286 Cl      
  37 C37            6.7158     9.9538    -4.1202 C.3     
  38 F38            6.4829    10.9938    -3.2139 F       
  39 F39            6.0095    10.1988    -5.3027 F       
  40 F40            8.0842     9.8781    -4.4015 F       
  41 S41            2.5066     7.4899    -2.2284 S.o     
  42 S42            2.4478     8.5744    -0.7885 S.3     
  43 O43            2.7558     9.8988    -1.4451 O.2     
  44 C44            6.2466     8.6314    -3.5105 C.3     
  45 C45            4.7501     8.7142    -3.2028 C.3     
  46 C46            4.2808     7.3917    -2.5931 C.3     
  47 H47           -0.6998     1.8537    -0.6801 H       
  48 H48            4.0951     2.3608    -0.7839 H       
  49 H49            6.3476     3.1359    -0.1766 H       
  50 H50            5.5806     2.2224     3.9221 H       
  51 H51            1.1800     2.8166    -2.4928 H       
  52 H52            2.0765     4.3057     1.4248 H       
  53 H53            2.5666     6.5157     0.4618 H       
  54 H54            1.6778     5.0324    -3.4382 H       
  55 H55            1.0898    -1.7978     0.3012 H       
  56 H56            0.4645    -3.2247     1.1673 H       
  57 H57            0.4635    -2.7784    -1.8536 H       
  58 H58            1.4534    -3.9532    -0.9535 H       
  59 H59           -1.9927    -3.0598    -2.0002 H       
  60 H60           -2.7910    -4.4395    -1.2068 H       
  61 H61           -2.2483    -3.5382     1.0095 H       
  62 H62           -3.0724    -2.2748     0.0598 H       
  63 H63           -2.2527    -4.5769    -3.2217 H       
  64 H64           -1.9734    -5.9685    -5.2338 H       
  65 H65           -0.0339    -7.4727    -5.4310 H       
  66 H66            1.6267    -7.5847    -3.6163 H       
  67 H67            1.3499    -6.1897    -1.6062 H       
  68 H68           -2.3009    -6.3346    -0.2818 H       
  69 H69           -1.6284    -6.7234     1.2080 H       
  70 H70            6.4280     7.8211    -4.2166 H       
  71 H71            6.7969     8.4405    -2.5892 H       
  72 H72            4.5686     9.5244    -2.4967 H       
  73 H73            4.1998     8.9050    -4.1241 H       
  74 H74            4.8312     7.2008    -1.6718 H       
  75 H75            4.4623     6.5814    -3.2993 H       
@<TRIPOS>BOND
   1    1    2 2
   2    1    3 1
   3    1   47 1
   4    2   18 1
   5    2    5 1
   6    3    4 2
   7    3   12 1
   8    4    5 1
   9    4    6 1
  10    6    7 ar
  11    6   11 ar
  12    7    8 ar
  13    7   48 1
  14    8    9 ar
  15    8   49 1
  16    9   10 ar
  17    9   36 1
  18   10   11 ar
  19   10   50 1
  20   11   21 1
  21   12   13 ar
  22   12   14 ar
  23   13   17 ar
  24   13   51 1
  25   14   15 ar
  26   14   52 1
  27   15   16 ar
  28   15   53 1
  29   16   17 ar
  30   16   41 1
  31   17   54 1
  32   18   19 2
  33   18   20 am
  34   20   22 1
  35   20   26 1
  36   22   23 1
  37   22   55 1
  38   22   56 1
  39   23   24 1
  40   23   57 1
  41   23   58 1
  42   24   25 1
  43   24   27 1
  44   24   33 1
  45   25   26 1
  46   25   59 1
  47   25   60 1
  48   26   61 1
  49   26   62 1
  50   27   28 ar
  51   27   32 ar
  52   28   29 ar
  53   28   63 1
  54   29   30 ar
  55   29   64 1
  56   30   31 ar
  57   30   65 1
  58   31   32 ar
  59   31   66 1
  60   32   67 1
  61   33   34 2
  62   33   35 am
  63   35   68 1
  64   35   69 1
  65   37   38 1
  66   37   39 1
  67   37   40 1
  68   37   44 1
  69   41   46 1
  70   41   42 2
  71   42   43 2
  72   44   45 1
  73   44   70 1
  74   44   71 1
  75   45   46 1
  76   45   72 1
  77   45   73 1
  78   46   74 1
  79   46   75 1

#	End of record

