#	Name: ASD01812205
#	Creating user name:	WinNT
#	Creation time:	15. 06. 2019 19:28

#	Modifying user name:	WinNT
#	Modification time:	15. 06. 2019 19:28

#	Program:	/corina/corina34_cracker 3.40 0067  02.08.2006

@<TRIPOS>MOLECULE
ASD01812205
  67   72    0    0    0
SMALL
NO_CHARGES


@<TRIPOS>ATOM
   1 C1             0.1965     1.2529     1.2439 C.ar    
   2 C2             0.1658    -0.1085     0.9497 C.ar    
   3 C3             1.2550    -0.7382     0.4284 C.ar    
   4 C4             2.4291    -0.0089     0.1814 C.ar    
   5 C5             2.4609     1.3782     0.4804 C.ar    
   6 C6             1.3163     1.9930     1.0183 C.ar    
   7 C7             3.5718    -0.6284    -0.3568 C.ar    
   8 C8             4.6958     0.0952    -0.5882 C.ar    
   9 C9             4.7432     1.4726    -0.2963 C.ar    
  10 C10            3.6304     2.1057     0.2340 C.ar    
  11 C11            3.5474    -2.1008    -0.6769 C.3     
  12 C12            5.8177     2.4734    -0.4478 C.2     
  13 N13            5.3952     3.6790    -0.0301 N.am    
  14 C14            4.0064     3.5532     0.4269 C.3     
  15 O15            6.9269     2.2403    -0.8874 O.2     
  16 C16            6.1876     4.9112    -0.0312 C.3     
  17 C17            5.2662     6.1098    -0.2665 C.3     
  18 C18            4.2212     6.1764     0.8490 C.3     
  19 C19            4.9250     6.3314     2.1986 C.3     
  20 C20            5.8463     5.1328     2.4339 C.3     
  21 C21            6.8914     5.0661     1.3184 C.3     
  22 N22            2.8711    -2.3110    -1.9639 N.3     
  23 C23            3.0339    -3.6970    -2.4243 C.3     
  24 C24            2.2506    -3.8954    -3.7241 C.3     
  25 N25            2.7370    -2.9469    -4.7357 N.3     
  26 C26            2.5741    -1.5608    -4.2754 C.3     
  27 C27            3.3575    -1.3625    -2.9755 C.3     
  28 C28            2.0888    -3.1483    -5.9693 C.2     
  29 O29            4.6088     5.9651    -1.5270 O.3     
  30 C30            1.1062    -4.1119    -6.2378 C.2     
  31 N31            0.7437    -3.9934    -7.4897 N.2     
  32 C32            2.2998    -2.4404    -7.1077 C.2     
  33 N33            1.4809    -2.9508    -8.0656 N.pl3   
  34 C34            1.3829    -2.4888    -9.4524 C.3     
  35 H35           -0.6825     1.7289     1.6529 H       
  36 H36           -0.7353    -0.6732     1.1382 H       
  37 H37            1.2160    -1.7944     0.2062 H       
  38 H38            1.3255     3.0477     1.2506 H       
  39 H39            5.5667    -0.3917    -1.0016 H       
  40 H40            4.5688    -2.4764    -0.7377 H       
  41 H41            3.0102    -2.6343     0.1072 H       
  42 H42            3.3560     4.1923    -0.1703 H       
  43 H43            3.9327     3.8225     1.4805 H       
  44 H44            6.9321     4.8637    -0.8259 H       
  45 H45            5.8558     7.0266    -0.2673 H       
  46 H46            3.5648     7.0304     0.6814 H       
  47 H47            3.6316     5.2596     0.8498 H       
  48 H48            5.5145     7.2482     2.1978 H       
  49 H49            4.1805     6.3789     2.9933 H       
  50 H50            6.3478     5.2431     3.3954 H       
  51 H51            5.2568     4.2160     2.4347 H       
  52 H52            7.5478     4.2122     1.4860 H       
  53 H53            7.4809     5.9829     1.3176 H       
  54 H54            4.0901    -3.8996    -2.6017 H       
  55 H55            2.6552    -4.3797    -1.6637 H       
  56 H56            2.3935    -4.9147    -4.0829 H       
  57 H57            1.1907    -3.7194    -3.5404 H       
  58 H58            2.9529    -0.8781    -5.0360 H       
  59 H59            1.5179    -1.3583    -4.0979 H       
  60 H60            3.2146    -0.3432    -2.6168 H       
  61 H61            4.4174    -1.5385    -3.1592 H       
  62 H62            4.0073     6.6909    -1.7426 H       
  63 H63            0.7153    -4.8298    -5.5319 H       
  64 H64            2.9969    -1.6250    -7.2322 H       
  65 H65            0.6281    -1.7056    -9.5220 H       
  66 H66            2.3470    -2.0937    -9.7727 H       
  67 H67            1.1009    -3.3234   -10.0944 H       
@<TRIPOS>BOND
   1    1    2 ar
   2    1    6 ar
   3    1   35 1
   4    2    3 ar
   5    2   36 1
   6    3    4 ar
   7    3   37 1
   8    4    5 ar
   9    4    7 ar
  10    5    6 ar
  11    5   10 ar
  12    6   38 1
  13    7    8 ar
  14    7   11 1
  15    8    9 ar
  16    8   39 1
  17    9   10 ar
  18    9   12 1
  19   10   14 1
  20   11   22 1
  21   11   40 1
  22   11   41 1
  23   12   13 am
  24   12   15 2
  25   13   14 1
  26   13   16 1
  27   14   42 1
  28   14   43 1
  29   16   17 1
  30   16   21 1
  31   16   44 1
  32   17   18 1
  33   17   29 1
  34   17   45 1
  35   18   19 1
  36   18   46 1
  37   18   47 1
  38   19   20 1
  39   19   48 1
  40   19   49 1
  41   20   21 1
  42   20   50 1
  43   20   51 1
  44   21   52 1
  45   21   53 1
  46   22   23 1
  47   22   27 1
  48   23   24 1
  49   23   54 1
  50   23   55 1
  51   24   25 1
  52   24   56 1
  53   24   57 1
  54   25   26 1
  55   25   28 1
  56   26   27 1
  57   26   58 1
  58   26   59 1
  59   27   60 1
  60   27   61 1
  61   28   30 1
  62   28   32 2
  63   29   62 1
  64   30   31 2
  65   30   63 1
  66   31   33 1
  67   32   33 1
  68   32   64 1
  69   33   34 1
  70   34   65 1
  71   34   66 1
  72   34   67 1

#	End of record

