#	Name: ASD03930268
#	Creating user name:	WinNT
#	Creation time:	15. 06. 2019 20:47

#	Modifying user name:	WinNT
#	Modification time:	15. 06. 2019 20:47

#	Program:	/corina/corina34_cracker 3.40 0067  02.08.2006

@<TRIPOS>MOLECULE
ASD03930268
  38   42    0    0    0
SMALL
NO_CHARGES


@<TRIPOS>ATOM
   1 O1             0.0021    -0.0041     0.0020 O.2     
   2 C2            -0.0144     1.2114     0.0087 C.2     
   3 N3            -1.1685     1.9179     0.0293 N.am    
   4 C4            -2.5220     1.4185     0.2699 C.3     
   5 C5            -3.4649     2.6424     0.2668 C.3     
   6 C6            -2.5048     3.8246     0.5692 C.3     
   7 C7            -1.2207     3.3809    -0.1715 C.3     
   8 O8            -0.0793     3.9727     0.4512 O.3     
   9 C9             1.1310     3.4040     0.2111 C.ar    
  10 C10            2.2744     4.1849     0.1799 C.ar    
  11 C11            3.5084     3.5892    -0.0545 C.ar    
  12 C12            4.7513     4.4011    -0.0972 C.2     
  13 O13            4.7740     5.5698     0.2365 O.2     
  14 N14            5.8568     3.7529    -0.5319 N.am    
  15 C15            7.2450     4.2102    -0.4775 C.3     
  16 C16            8.1227     3.0639    -1.0277 C.3     
  17 C17            7.2185     1.8143    -0.8491 C.3     
  18 C18            5.8151     2.4022    -1.1300 C.3     
  19 O19            4.8258     1.6284    -0.4491 O.3     
  20 C20            3.6107     2.2025    -0.2491 C.ar    
  21 C21            2.4662     1.4232    -0.2291 C.ar    
  22 C22            1.2307     2.0209     0.0012 C.ar    
  23 H23           -2.8088     0.7269    -0.5222 H       
  24 H24           -2.5665     0.9181     1.2373 H       
  25 H25           -3.9327     2.7660    -0.7100 H       
  26 H26           -4.2197     2.5494     1.0477 H       
  27 H27           -2.8911     4.7568     0.1569 H       
  28 H28           -2.3254     3.9179     1.6402 H       
  29 H29           -1.2732     3.6301    -1.2314 H       
  30 H30            2.2077     5.2514     0.3366 H       
  31 H31            7.3670     5.1003    -1.0948 H       
  32 H32            7.5236     4.4292     0.5533 H       
  33 H33            8.3527     3.2260    -2.0808 H       
  34 H34            9.0374     2.9644    -0.4433 H       
  35 H35            7.4711     1.0424    -1.5760 H       
  36 H36            7.2834     1.4273     0.1678 H       
  37 H37            5.6178     2.4528    -2.2008 H       
  38 H38            2.5327     0.3568    -0.3869 H       
@<TRIPOS>BOND
   1    1    2 2
   2    2   22 1
   3    2    3 am
   4    3    7 1
   5    3    4 1
   6    4    5 1
   7    4   23 1
   8    4   24 1
   9    5    6 1
  10    5   25 1
  11    5   26 1
  12    6    7 1
  13    6   27 1
  14    6   28 1
  15    7    8 1
  16    7   29 1
  17    8    9 1
  18    9   22 ar
  19    9   10 ar
  20   10   11 ar
  21   10   30 1
  22   11   20 ar
  23   11   12 1
  24   12   13 2
  25   12   14 am
  26   14   18 1
  27   14   15 1
  28   15   16 1
  29   15   31 1
  30   15   32 1
  31   16   17 1
  32   16   33 1
  33   16   34 1
  34   17   18 1
  35   17   35 1
  36   17   36 1
  37   18   19 1
  38   18   37 1
  39   19   20 1
  40   20   21 ar
  41   21   22 ar
  42   21   38 1

#	End of record

