#	Name: ASD01912223
#	Creating user name:	WinNT
#	Creation time:	15. 06. 2019 19:59

#	Modifying user name:	WinNT
#	Modification time:	15. 06. 2019 19:59

#	Program:	/corina/corina34_cracker 3.40 0067  02.08.2006

@<TRIPOS>MOLECULE
ASD01912223
  52   54    0    0    0
SMALL
NO_CHARGES


@<TRIPOS>ATOM
   1 N1            -0.0177     1.4646     0.0068 N.am    
   2 C2             0.0026    -0.0038     0.0054 C.3     
   3 C3             0.7686    -0.4858    -1.2331 C.3     
   4 C4             2.0816     0.2625    -1.3045 C.2     
   5 C5             2.0518     1.7742    -1.2506 C.3     
   6 C6             1.2536     2.1996    -0.0117 C.3     
   7 C7            -1.1897     2.1301     0.0193 C.2     
   8 O8            -2.2370     1.5186    -0.0678 O.2     
   9 N9            -1.2007     3.4734     0.1284 N.am    
  10 C10           -2.4654     4.2061     0.0284 C.3     
  11 C11           -3.1471     4.2359     1.3978 C.3     
  12 C12           -2.1942     5.6163    -0.4285 C.ar    
  13 C13           -3.0395     6.2225    -1.3389 C.ar    
  14 C14           -2.7907     7.5160    -1.7581 C.ar    
  15 C15           -1.6968     8.2036    -1.2665 C.ar    
  16 C16           -0.8520     7.5977    -0.3554 C.ar    
  17 C17           -1.1033     6.3057     0.0671 C.ar    
  18 C18            3.2361    -0.3938    -1.4117 C.2     
  19 C19            4.4688     0.3319    -1.4779 C.1     
  20 C20            5.4794     0.9269    -1.5321 C.1     
  21 C21            6.7121     1.6526    -1.5983 C.ar    
  22 C22            7.9207     0.9591    -1.7108 C.ar    
  23 C23            9.1020     1.6750    -1.7735 C.ar    
  24 C24            9.0412     3.0615    -1.7221 C.ar    
  25 C25            7.8116     3.6845    -1.6105 C.ar    
  26 N26            6.6988     2.9819    -1.5579 N.ar    
  27 C27            7.7436     5.1889    -1.5546 C.3     
  28 H28            0.5006    -0.3632     0.9059 H       
  29 H29           -1.0187    -0.3833    -0.0261 H       
  30 H30            0.9600    -1.5559    -1.1528 H       
  31 H31            0.1819    -0.2837    -2.1292 H       
  32 H32            3.0693     2.1591    -1.1816 H       
  33 H33            1.5716     2.1640    -2.1482 H       
  34 H34            1.0559     3.2706    -0.0544 H       
  35 H35            1.8234     1.9666     0.8878 H       
  36 H36           -0.3712     3.9551     0.2731 H       
  37 H37           -3.1168     3.7100    -0.6910 H       
  38 H38           -2.4957     4.7320     2.1173 H       
  39 H39           -4.0881     4.7810     1.3235 H       
  40 H40           -3.3432     3.2159     1.7283 H       
  41 H41           -3.8941     5.6853    -1.7230 H       
  42 H42           -3.4507     7.9894    -2.4699 H       
  43 H43           -1.5021     9.2139    -1.5945 H       
  44 H44            0.0028     8.1347     0.0284 H       
  45 H45           -0.4453     5.8336     0.7817 H       
  46 H46            3.2422    -1.4731    -1.4486 H       
  47 H47            7.9316    -0.1202    -1.7477 H       
  48 H48           10.0511     1.1671    -1.8602 H       
  49 H49            9.9467     3.6483    -1.7686 H       
  50 H50            7.6517     5.5863    -2.5654 H       
  51 H51            6.8782     5.4918    -0.9651 H       
  52 H52            8.6515     5.5768    -1.0928 H       
@<TRIPOS>BOND
   1    1    2 1
   2    1    6 1
   3    1    7 am
   4    2    3 1
   5    2   28 1
   6    2   29 1
   7    3    4 1
   8    3   30 1
   9    3   31 1
  10    4    5 1
  11    4   18 2
  12    5    6 1
  13    5   32 1
  14    5   33 1
  15    6   34 1
  16    6   35 1
  17    7    8 2
  18    7    9 am
  19    9   10 1
  20    9   36 1
  21   10   11 1
  22   10   12 1
  23   10   37 1
  24   11   38 1
  25   11   39 1
  26   11   40 1
  27   12   13 ar
  28   12   17 ar
  29   13   14 ar
  30   13   41 1
  31   14   15 ar
  32   14   42 1
  33   15   16 ar
  34   15   43 1
  35   16   17 ar
  36   16   44 1
  37   17   45 1
  38   18   19 1
  39   18   46 1
  40   19   20 3
  41   20   21 1
  42   21   22 ar
  43   21   26 ar
  44   22   23 ar
  45   22   47 1
  46   23   24 ar
  47   23   48 1
  48   24   25 ar
  49   24   49 1
  50   25   26 ar
  51   25   27 1
  52   27   50 1
  53   27   51 1
  54   27   52 1

#	End of record

