#	Name: ASD01811472
#	Creating user name:	WinNT
#	Creation time:	15. 06. 2019 19:26

#	Modifying user name:	WinNT
#	Modification time:	15. 06. 2019 19:26

#	Program:	/corina/corina34_cracker 3.40 0067  02.08.2006

@<TRIPOS>MOLECULE
ASD01811472
  72   77    0    0    0
SMALL
NO_CHARGES


@<TRIPOS>ATOM
   1 C1            -7.9627     2.0830     2.4132 C.1     
   2 C2            -6.7995     2.8890     2.1943 C.ar    
   3 C3            -5.5508     2.4549     2.6435 C.ar    
   4 C4            -4.4344     3.2364     2.4292 C.ar    
   5 C5            -4.5501     4.4481     1.7713 C.ar    
   6 C6            -5.7845     4.8846     1.3240 C.ar    
   7 C7            -6.9081     4.1100     1.5256 C.ar    
   8 N8            -8.8855     1.4436     2.5869 N.1     
   9 N9            -1.8977     7.7378     1.5202 N.am    
  10 C10           -2.3820     7.2073     0.2385 C.3     
  11 C11           -3.6382     6.3688     0.4950 C.3     
  12 C12           -3.3260     5.2965     1.5414 C.3     
  13 C13           -2.9163     5.9669     2.8547 C.3     
  14 C14           -1.6520     6.8009     2.6250 C.3     
  15 F15           -2.2788     4.4896     1.0838 F       
  16 C16           -1.6777     9.0581     1.6778 C.2     
  17 C17           -1.2737     9.5880     2.9978 C.ar    
  18 C18           -2.0198    10.6018     3.6033 C.ar    
  19 C19           -1.6438    11.0974     4.8357 C.ar    
  20 C20           -0.5290    10.5953     5.4779 C.ar    
  21 C21            0.2256     9.5819     4.8838 C.ar    
  22 C22           -0.1514     9.0732     3.6430 C.ar    
  23 O23           -1.8113     9.8133     0.7347 O.2     
  24 C24            4.4451     7.0087     5.9644 C.3     
  25 C25            3.2439     7.9169     6.0100 C.2     
  26 C26            2.9254     8.6897     7.0764 C.2     
  27 C27            3.7453     8.7186     8.3439 C.3     
  28 C28            4.6669     7.4912     8.3367 C.3     
  29 N29            5.3640     7.4033     7.0462 N.3     
  30 C30            1.4197     9.0458     5.5731 C.2     
  31 N31            2.2983     8.1337     5.0577 N.pl3   
  32 N32            1.8170     9.3661     6.7877 N.2     
  33 C33            6.5074     6.4847     7.1269 C.3     
  34 C34           -3.2374    11.1560     2.9096 C.3     
  35 C35           -0.1258    11.1428     6.8228 C.3     
  36 C36            0.0805    12.6667     6.8308 C.3     
  37 C37           -0.6067    12.6734     8.2065 C.3     
  38 C38           -1.3119    11.3774     7.7731 C.3     
  39 H39           -5.4592     1.5096     3.1577 H       
  40 H40           -3.4679     2.9018     2.7761 H       
  41 H41           -5.8678     5.8316     0.8115 H       
  42 H42           -7.8702     4.4496     1.1716 H       
  43 H43           -2.6241     8.0330    -0.4306 H       
  44 H44           -1.6114     6.5824    -0.2129 H       
  45 H45           -4.4371     7.0133     0.8616 H       
  46 H46           -3.9524     5.8910    -0.4330 H       
  47 H47           -3.7221     6.6152     3.1991 H       
  48 H48           -2.7168     5.2031     3.6063 H       
  49 H49           -0.8219     6.1428     2.3682 H       
  50 H50           -1.4124     7.3584     3.5305 H       
  51 H51           -2.2238    11.8815     5.2995 H       
  52 H52            0.4264     8.2862     3.1812 H       
  53 H53            4.1301     5.9752     6.1086 H       
  54 H54            4.9460     7.1099     5.0016 H       
  55 H55            4.3438     9.6291     8.3754 H       
  56 H56            3.0858     8.6797     9.2108 H       
  57 H57            5.3991     7.5827     9.1390 H       
  58 H58            4.0725     6.5905     8.4900 H       
  59 H59            2.2553     7.7209     4.1810 H       
  60 H60            7.0110     6.4455     6.1610 H       
  61 H61            7.2049     6.8385     7.8862 H       
  62 H62            6.1549     5.4883     7.3935 H       
  63 H63           -4.0998    10.5275     3.1319 H       
  64 H64           -3.4264    12.1700     3.2621 H       
  65 H65           -3.0669    11.1714     1.8332 H       
  66 H66            0.6959    10.5885     7.2764 H       
  67 H67            1.1282    12.9653     6.8647 H       
  68 H68           -0.4845    13.1878     6.0580 H       
  69 H69            0.0828    12.5377     9.0397 H       
  70 H70           -1.2866    13.5131     8.3509 H       
  71 H71           -2.2575    11.5460     7.2579 H       
  72 H72           -1.3882    10.6351     8.5677 H       
@<TRIPOS>BOND
   1    1    2 1
   2    1    8 3
   3    2    3 ar
   4    2    7 ar
   5    3    4 ar
   6    3   39 1
   7    4    5 ar
   8    4   40 1
   9    5    6 ar
  10    5   12 1
  11    6    7 ar
  12    6   41 1
  13    7   42 1
  14    9   10 1
  15    9   14 1
  16    9   16 am
  17   10   11 1
  18   10   43 1
  19   10   44 1
  20   11   12 1
  21   11   45 1
  22   11   46 1
  23   12   13 1
  24   12   15 1
  25   13   14 1
  26   13   47 1
  27   13   48 1
  28   14   49 1
  29   14   50 1
  30   16   17 1
  31   16   23 2
  32   17   18 ar
  33   17   22 ar
  34   18   19 ar
  35   18   34 1
  36   19   20 ar
  37   19   51 1
  38   20   21 ar
  39   20   35 1
  40   21   22 ar
  41   21   30 1
  42   22   52 1
  43   24   25 1
  44   24   29 1
  45   24   53 1
  46   24   54 1
  47   25   26 2
  48   25   31 1
  49   26   27 1
  50   26   32 1
  51   27   28 1
  52   27   55 1
  53   27   56 1
  54   28   29 1
  55   28   57 1
  56   28   58 1
  57   29   33 1
  58   30   31 1
  59   30   32 2
  60   31   59 1
  61   33   60 1
  62   33   61 1
  63   33   62 1
  64   34   63 1
  65   34   64 1
  66   34   65 1
  67   35   36 1
  68   35   38 1
  69   35   66 1
  70   36   37 1
  71   36   67 1
  72   36   68 1
  73   37   38 1
  74   37   69 1
  75   37   70 1
  76   38   71 1
  77   38   72 1

#	End of record

