#	Name: ASD08178423
#	Creating user name:	WinNT
#	Creation time:	15. 06. 2019 21:18

#	Modifying user name:	WinNT
#	Modification time:	15. 06. 2019 21:18

#	Program:	/corina/corina34_cracker 3.40 0067  02.08.2006

@<TRIPOS>MOLECULE
ASD08178423
  74   77    0    0    0
SMALL
NO_CHARGES


@<TRIPOS>ATOM
   1 N1            -0.0168     1.3902     0.0097 N.am    
   2 C2            -0.2173     0.0103     0.0231 C.ar    
   3 C3             0.8683    -0.8557    -0.0926 C.ar    
   4 N4            -1.4399    -0.4832     0.1513 N.ar    
   5 N5            -1.6667    -1.7463     0.1686 N.ar    
   6 C6            -0.7002    -2.6368     0.0602 C.ar    
   7 C7             0.6159    -2.2190    -0.0733 C.ar    
   8 C8            -1.0247    -4.1082     0.0874 C.3     
   9 C9            -1.8115    -4.4335     1.3586 C.3     
  10 C10           -2.1410    -5.9273     1.3862 C.3     
  11 C11           -2.9278    -6.2527     2.6574 C.3     
  12 C12           -3.2523    -7.7241     2.6845 C.2     
  13 N13           -2.5213    -8.6581     3.2049 N.2     
  14 N14           -2.9690    -9.8359     3.1257 N.2     
  15 C15           -4.1130   -10.0077     2.5350 C.2     
  16 S16           -4.6995    -8.4828     2.0200 S.3     
  17 N17           -4.7575   -11.2270     2.3553 N.am    
  18 C18           -4.1929   -12.3617     2.8139 C.2     
  19 C19           -4.8913   -13.6828     2.6192 C.3     
  20 O20           -3.1229   -12.3195     3.3832 O.2     
  21 C21           -4.0568   -14.7853     3.2184 C.ar    
  22 C22           -4.2367   -15.1478     4.5402 C.ar    
  23 C23           -1.0750     2.2250     0.0167 C.2     
  24 C24           -0.8601     3.7130     0.1198 C.3     
  25 O25           -2.2000     1.7786    -0.0599 O.2     
  26 C26           -2.1935     4.4152     0.1067 C.ar    
  27 C27           -2.8564     4.6619     1.2941 C.ar    
  28 C28           -4.0797     5.3060     1.2820 C.ar    
  29 C29           -4.6395     5.7036     0.0825 C.ar    
  30 C30           -3.9759     5.4577    -1.1053 C.ar    
  31 C31           -2.7510     4.8176    -1.0928 C.ar    
  32 C32           -3.4711   -16.1590     5.0899 C.ar    
  33 C33           -2.5260   -16.8081     4.3177 C.ar    
  34 C34           -2.3467   -16.4462     2.9957 C.ar    
  35 C35           -3.1153   -15.4379     2.4448 C.ar    
  36 C36           -4.8029     5.5741     2.5766 C.3     
  37 N37           -5.4132     6.9051     2.5285 N.am    
  38 C38           -5.6652     7.5726     3.6719 C.2     
  39 C39           -5.8933     4.5201     2.7794 C.3     
  40 O40           -5.3867     7.0715     4.7406 O.2     
  41 F41           -6.4547     9.4279     4.9242 F       
  42 F42           -5.4654     9.8084     2.9004 F       
  43 C43           -6.2929     8.9417     3.6224 C.3     
  44 F44           -7.5415     8.8599     2.9966 F       
  45 H45            0.8842     1.7494    -0.0006 H       
  46 H46            1.8745    -0.4770    -0.1944 H       
  47 H47            1.4199    -2.9345    -0.1636 H       
  48 H48           -1.6240    -4.3643    -0.7864 H       
  49 H49           -0.0997    -4.6845     0.0751 H       
  50 H50           -1.2123    -4.1774     2.2323 H       
  51 H51           -2.7366    -3.8571     1.3708 H       
  52 H52           -2.7402    -6.1835     0.5124 H       
  53 H53           -1.2159    -6.5037     1.3739 H       
  54 H54           -2.3286    -5.9966     3.5311 H       
  55 H55           -3.8529    -5.6763     2.6696 H       
  56 H56           -5.6133   -11.2607     1.9000 H       
  57 H57           -5.8640   -13.6554     3.1104 H       
  58 H58           -5.0274   -13.8683     1.5537 H       
  59 H59           -4.9751   -14.6406     5.1435 H       
  60 H60           -0.3385     3.9413     1.0493 H       
  61 H61           -0.2620     4.0532    -0.7255 H       
  62 H62           -2.4189     4.3512     2.2314 H       
  63 H63           -5.5954     6.2062     0.0730 H       
  64 H64           -4.4135     5.7681    -2.0426 H       
  65 H65           -2.2327     4.6255    -2.0206 H       
  66 H66           -3.6112   -16.4417     6.1228 H       
  67 H67           -1.9274   -17.5977     4.7474 H       
  68 H68           -1.6081   -16.9531     2.3925 H       
  69 H69           -2.9752   -15.1552     1.4119 H       
  70 H70           -4.0952     5.5286     3.4043 H       
  71 H71           -5.6359     7.3059     1.6737 H       
  72 H72           -5.4392     3.5299     2.8152 H       
  73 H73           -6.4164     4.7141     3.7158 H       
  74 H74           -6.6010     4.5656     1.9517 H       
@<TRIPOS>BOND
   1    1    2 1
   2    1   23 am
   3    1   45 1
   4    2    3 ar
   5    2    4 ar
   6    3    7 ar
   7    3   46 1
   8    4    5 ar
   9    5    6 ar
  10    6    7 ar
  11    6    8 1
  12    7   47 1
  13    8    9 1
  14    8   48 1
  15    8   49 1
  16    9   10 1
  17    9   50 1
  18    9   51 1
  19   10   11 1
  20   10   52 1
  21   10   53 1
  22   11   12 1
  23   11   54 1
  24   11   55 1
  25   12   13 2
  26   12   16 1
  27   13   14 1
  28   14   15 2
  29   15   16 1
  30   15   17 1
  31   17   18 am
  32   17   56 1
  33   18   19 1
  34   18   20 2
  35   19   21 1
  36   19   57 1
  37   19   58 1
  38   21   22 ar
  39   21   35 ar
  40   22   32 ar
  41   22   59 1
  42   23   24 1
  43   23   25 2
  44   24   26 1
  45   24   60 1
  46   24   61 1
  47   26   27 ar
  48   26   31 ar
  49   27   28 ar
  50   27   62 1
  51   28   29 ar
  52   28   36 1
  53   29   30 ar
  54   29   63 1
  55   30   31 ar
  56   30   64 1
  57   31   65 1
  58   32   33 ar
  59   32   66 1
  60   33   34 ar
  61   33   67 1
  62   34   35 ar
  63   34   68 1
  64   35   69 1
  65   36   37 1
  66   36   39 1
  67   36   70 1
  68   37   38 am
  69   37   71 1
  70   38   43 1
  71   38   40 2
  72   39   72 1
  73   39   73 1
  74   39   74 1
  75   41   43 1
  76   42   43 1
  77   43   44 1

#	End of record

