#	Name: ASD01900536
#	Creating user name:	WinNT
#	Creation time:	15. 06. 2019 19:52

#	Modifying user name:	WinNT
#	Modification time:	15. 06. 2019 19:52

#	Program:	/corina/corina34_cracker 3.40 0067  02.08.2006

@<TRIPOS>MOLECULE
ASD01900536
  26   28    0    0    0
SMALL
NO_CHARGES


@<TRIPOS>ATOM
   1 O1             0.0258     1.4081     0.3637 O.3     
   2 N2             0.0457    -0.0051     0.3600 N.2     
   3 C3             1.2467    -0.4255     0.0734 C.2     
   4 C4             2.0882     0.7639    -0.1286 C.ar    
   5 C5             1.2567     1.8761     0.0692 C.ar    
   6 C6             1.7841     3.1573    -0.0578 C.ar    
   7 C7             3.1165     3.3243    -0.3763 C.ar    
   8 C8             3.9379     2.2237    -0.5722 C.ar    
   9 C9             3.4334     0.9484    -0.4506 C.ar    
  10 N10            1.6549    -1.7490    -0.0227 N.pl3   
  11 F11            0.9930     4.2363     0.1300 F       
  12 C12            0.7160    -2.7802     0.0862 C.ar    
  13 C13           -0.5991    -2.5677    -0.3067 C.ar    
  14 C14           -1.5248    -3.5880    -0.1986 C.ar    
  15 C15           -1.1411    -4.8223     0.3020 C.ar    
  16 C16            0.1691    -5.0352     0.6944 C.ar    
  17 C17            1.0989    -4.0196     0.5821 C.ar    
  18 F18           -2.0473    -5.8187     0.4075 F       
  19 Cl19          -3.1688    -3.3237    -0.6894 Cl      
  20 H20            3.5230     4.3201    -0.4742 H       
  21 H21            4.9788     2.3680    -0.8214 H       
  22 H22            4.0763     0.0942    -0.6032 H       
  23 H23            2.5912    -1.9587    -0.1654 H       
  24 H24           -0.8981    -1.6057    -0.6961 H       
  25 H25            0.4657    -5.9975     1.0848 H       
  26 H26            2.1220    -4.1879     0.8842 H       
@<TRIPOS>BOND
   1    1    2 1
   2    1    5 1
   3    2    3 2
   4    3    4 1
   5    3   10 1
   6    4    5 ar
   7    4    9 ar
   8    5    6 ar
   9    6    7 ar
  10    6   11 1
  11    7    8 ar
  12    7   20 1
  13    8    9 ar
  14    8   21 1
  15    9   22 1
  16   10   12 1
  17   10   23 1
  18   12   13 ar
  19   12   17 ar
  20   13   14 ar
  21   13   24 1
  22   14   15 ar
  23   14   19 1
  24   15   16 ar
  25   15   18 1
  26   16   17 ar
  27   16   25 1
  28   17   26 1

#	End of record

