#	Name: ASD00310217
#	Creating user name:	WinNT
#	Creation time:	15. 06. 2019 18:34

#	Modifying user name:	WinNT
#	Modification time:	15. 06. 2019 18:34

#	Program:	/corina/corina34_cracker 3.40 0067  02.08.2006

@<TRIPOS>MOLECULE
ASD00310217
  47   50    0    0    0
SMALL
NO_CHARGES


@<TRIPOS>ATOM
   1 N1            -0.0163     1.3500     0.0095 N.pl3   
   2 C2             0.0021    -0.0041     0.0020 C.2     
   3 C3             1.2921    -0.4483    -0.0127 C.2     
   4 C4             2.1475     0.7539    -0.0144 C.ar    
   5 C5             3.5230     0.9583    -0.0264 C.ar    
   6 C6             4.0239     2.2538    -0.0243 C.ar    
   7 C7             3.1465     3.3436    -0.0100 C.ar    
   8 C8             1.7850     3.1436     0.0019 C.ar    
   9 C9             1.2694     1.8502    -0.0001 C.ar    
  10 C10            1.7402    -1.8454    -0.0240 C.2     
  11 O11            2.9286    -2.1027    -0.0364 O.2     
  12 O12            0.8342    -2.8441    -0.0208 O.3     
  13 C13            5.4898     2.4821    -0.0365 C.ar    
  14 C14            6.0532     3.3601    -0.9605 C.ar    
  15 C15            7.4174     3.5690    -0.9671 C.ar    
  16 C16            8.2252     2.9084    -0.0591 C.ar    
  17 C17            7.6714     2.0358     0.8602 C.ar    
  18 C18            6.3078     1.8237     0.8796 C.ar    
  19 N19           11.4757     3.0628     1.5959 N.am    
  20 C20           10.1907     3.7048     1.2829 C.3     
  21 C21            9.7143     3.1399    -0.0719 C.3     
  22 C22           10.4783     1.7935    -0.1750 C.3     
  23 C23           11.8295     2.1506     0.4932 C.3     
  24 S24           12.3796     3.3262     2.9583 S.o2    
  25 O25           13.7100     3.0251     2.5598 O.2     
  26 O26           12.0174     4.6367     3.3713 O.2     
  27 C27           11.7769     2.0950     4.1464 C.3     
  28 Cl28           3.7801     4.9599    -0.0068 Cl      
  29 H29           -0.8206     1.8922     0.0164 H       
  30 H30           -0.8729    -0.6372     0.0070 H       
  31 H31            4.1975     0.1150    -0.0370 H       
  32 H32            1.1155     3.9910     0.0128 H       
  33 H33            1.1773    -3.7482    -0.0286 H       
  34 H34            5.4234     3.8758    -1.6703 H       
  35 H35            7.8550     4.2492    -1.6828 H       
  36 H36            8.3069     1.5225     1.5667 H       
  37 H37            5.8759     1.1457     1.6008 H       
  38 H38            9.4613     3.4720     2.0587 H       
  39 H39           10.3239     4.7841     1.2083 H       
  40 H40            9.9923     3.8076    -0.8874 H       
  41 H41            9.9636     1.0088     0.3796 H       
  42 H42           10.6216     1.5043    -1.2161 H       
  43 H43           12.4840     2.6527    -0.2193 H       
  44 H44           12.3092     1.2527     0.8827 H       
  45 H45           11.9315     1.0944     3.7426 H       
  46 H46           12.3235     2.1969     5.0839 H       
  47 H47           10.7137     2.2539     4.3264 H       
@<TRIPOS>BOND
   1    1    2 1
   2    1    9 1
   3    1   29 1
   4    2    3 2
   5    2   30 1
   6    3    4 1
   7    3   10 1
   8    4    5 ar
   9    4    9 ar
  10    5    6 ar
  11    5   31 1
  12    6    7 ar
  13    6   13 1
  14    7    8 ar
  15    7   28 1
  16    8    9 ar
  17    8   32 1
  18   10   11 2
  19   10   12 1
  20   12   33 1
  21   13   14 ar
  22   13   18 ar
  23   14   15 ar
  24   14   34 1
  25   15   16 ar
  26   15   35 1
  27   16   17 ar
  28   16   21 1
  29   17   18 ar
  30   17   36 1
  31   18   37 1
  32   19   20 1
  33   19   23 1
  34   19   24 am
  35   20   21 1
  36   20   38 1
  37   20   39 1
  38   21   22 1
  39   21   40 1
  40   22   23 1
  41   22   41 1
  42   22   42 1
  43   23   43 1
  44   23   44 1
  45   24   25 2
  46   24   26 2
  47   24   27 1
  48   27   45 1
  49   27   46 1
  50   27   47 1

#	End of record

