#	Name: ASD03331286
#	Creating user name:	WinNT
#	Creation time:	15. 06. 2019 20:38

#	Modifying user name:	WinNT
#	Modification time:	15. 06. 2019 20:38

#	Program:	/corina/corina34_cracker 3.40 0067  02.08.2006

@<TRIPOS>MOLECULE
ASD03331286
  45   47    0    0    0
SMALL
NO_CHARGES


@<TRIPOS>ATOM
   1 N1            -0.0459     1.4956     0.5698 N.am    
   2 C2             0.0019     0.1506     1.1631 C.3     
   3 C3             0.5966    -0.8151     0.1327 C.3     
   4 N4             1.8894    -0.2950    -0.3322 N.3     
   5 C5             1.7288     0.9911    -1.0237 C.3     
   6 C6             1.1805     2.0309    -0.0406 C.3     
   7 C7            -1.1849     2.2161     0.5803 C.2     
   8 O8            -2.2139     1.7207     0.9973 O.2     
   9 N9            -1.1831     3.4859     0.1284 N.am    
  10 C10           -2.3851     4.1963     0.0330 C.ar    
  11 C11           -2.4015     5.5681     0.2481 C.ar    
  12 C12            2.5723    -1.2724    -1.1902 C.3     
  13 C13            3.7648    -0.6215    -1.8425 C.ar    
  14 C14            4.9975    -0.6546    -1.2179 C.ar    
  15 C15            6.0920    -0.0575    -1.8152 C.ar    
  16 C16            5.9539     0.5729    -3.0382 C.ar    
  17 C17            4.7195     0.6057    -3.6640 C.ar    
  18 C18            3.6267     0.0035    -3.0679 C.ar    
  19 C19           -3.5629     3.5318    -0.2826 C.ar    
  20 C20           -4.7474     4.2358    -0.3765 C.ar    
  21 C21           -4.7612     5.6010    -0.1571 C.ar    
  22 C22           -3.5893     6.2664     0.1527 C.ar    
  23 Br23           4.5292     1.4679    -5.3361 Br      
  24 Br24           7.4506     1.3904    -3.8553 Br      
  25 N25           -6.0324     6.3526    -0.2590 N.pl3   
  26 O26           -7.0647     5.7685    -0.5359 O.2     
  27 O27           -6.0460     7.5551    -0.0659 O.2     
  28 H28            0.6285     0.1659     2.0549 H       
  29 H29           -1.0063    -0.1697     1.4260 H       
  30 H30            0.7419    -1.7929     0.5920 H       
  31 H31           -0.0837    -0.9080    -0.7138 H       
  32 H32            2.6951     1.3233    -1.4030 H       
  33 H33            1.0326     0.8731    -1.8541 H       
  34 H34            0.9515     2.9537    -0.5736 H       
  35 H35            1.9203     2.2269     0.7355 H       
  36 H36           -0.3488     3.9073    -0.1307 H       
  37 H37           -1.4865     6.0883     0.4900 H       
  38 H38            2.9044    -2.1167    -0.5862 H       
  39 H39            1.8845    -1.6240    -1.9592 H       
  40 H40            5.1055    -1.1469    -0.2627 H       
  41 H41            7.0547    -0.0830    -1.3265 H       
  42 H42            2.6634     0.0287    -3.5556 H       
  43 H43           -3.5526     2.4657    -0.4549 H       
  44 H44           -5.6637     3.7196    -0.6220 H       
  45 H45           -3.6034     7.3326     0.3239 H       
@<TRIPOS>BOND
   1    1    2 1
   2    1    6 1
   3    1    7 am
   4    2    3 1
   5    2   28 1
   6    2   29 1
   7    3    4 1
   8    3   30 1
   9    3   31 1
  10    4    5 1
  11    4   12 1
  12    5    6 1
  13    5   32 1
  14    5   33 1
  15    6   34 1
  16    6   35 1
  17    7    8 2
  18    7    9 am
  19    9   10 1
  20    9   36 1
  21   10   11 ar
  22   10   19 ar
  23   11   22 ar
  24   11   37 1
  25   12   13 1
  26   12   38 1
  27   12   39 1
  28   13   14 ar
  29   13   18 ar
  30   14   15 ar
  31   14   40 1
  32   15   16 ar
  33   15   41 1
  34   16   17 ar
  35   16   24 1
  36   17   18 ar
  37   17   23 1
  38   18   42 1
  39   19   20 ar
  40   19   43 1
  41   20   21 ar
  42   20   44 1
  43   21   22 ar
  44   21   25 1
  45   22   45 1
  46   25   26 2
  47   25   27 2

#	End of record

