#	Name: ASD07300845
#	Creating user name:	WinNT
#	Creation time:	15. 06. 2019 21:10

#	Modifying user name:	WinNT
#	Modification time:	15. 06. 2019 21:10

#	Program:	/corina/corina34_cracker 3.40 0067  02.08.2006

@<TRIPOS>MOLECULE
ASD07300845
  44   48    0    0    0
SMALL
NO_CHARGES


@<TRIPOS>ATOM
   1 N1            -0.3753     1.7698     0.1225 N.am    
   2 C2            -0.1439     0.4356     0.2090 C.2     
   3 N3             1.0421    -0.0873     0.0988 N.2     
   4 C4             2.1326     0.6668    -0.1110 C.2     
   5 C5             1.9919     2.0596    -0.2150 C.2     
   6 C6             0.6500     2.6281    -0.0880 C.2     
   7 N7             3.4555     0.3983    -0.2615 N.pl3   
   8 N8             4.1309     1.6096    -0.4570 N.2     
   9 C9             3.2756     2.5943    -0.4310 C.2     
  10 O10            0.4622     3.8292    -0.1693 O.2     
  11 C11            4.0708    -0.9307    -0.2252 C.3     
  12 C12            4.7821    -1.2027    -1.5542 C.3     
  13 C13            5.4876    -2.5592    -1.4782 C.3     
  14 O14            6.4042    -2.5572    -0.3818 O.3     
  15 C15            5.7894    -2.3547     0.8922 C.3     
  16 C16            5.0959    -0.9899     0.9114 C.3     
  17 C17           -1.3151    -0.4831     0.4439 C.3     
  18 C18           -2.0561    -0.8784    -0.8443 C.3     
  19 C19           -2.1747    -2.2914    -0.2490 C.3     
  20 C20           -0.9200    -1.9632     0.5774 C.3     
  21 C21           -1.1955    -0.8141    -2.0797 C.2     
  22 O22           -1.3584     0.0380    -3.1006 O.3     
  23 C23           -0.3949    -0.2180    -4.0073 C.2     
  24 C24            0.3455    -1.2286    -3.5226 C.2     
  25 N25           -0.1672    -1.5740    -2.3283 N.2     
  26 H26           -1.2799     2.1096     0.2079 H       
  27 H27            3.5122     3.6408    -0.5542 H       
  28 H28            3.3005    -1.6847    -0.0629 H       
  29 H29            4.0508    -1.2172    -2.3624 H       
  30 H30            5.5171    -0.4197    -1.7408 H       
  31 H31            4.7477    -3.3461    -1.3320 H       
  32 H32            6.0310    -2.7388    -2.4059 H       
  33 H33            5.0534    -3.1389     1.0694 H       
  34 H34            6.5501    -2.3869     1.6721 H       
  35 H35            5.8373    -0.2027     0.7746 H       
  36 H36            4.5891    -0.8523     1.8666 H       
  37 H37           -1.9753    -0.1328     1.2374 H       
  38 H38           -3.0149    -0.3751    -0.9685 H       
  39 H39           -3.0699    -2.4368     0.3555 H       
  40 H40           -2.0214    -3.0867    -0.9784 H       
  41 H41            0.0131    -2.2133     0.0725 H       
  42 H42           -0.9616    -2.3357     1.6009 H       
  43 H43           -0.2463     0.2929    -4.9471 H       
  44 H44            1.2011    -1.6795    -4.0033 H       
@<TRIPOS>BOND
   1    1    2 1
   2    1    6 am
   3    1   26 1
   4    2    3 2
   5    2   17 1
   6    3    4 1
   7    4    5 2
   8    4    7 1
   9    5    6 1
  10    5    9 1
  11    6   10 2
  12    7    8 1
  13    7   11 1
  14    8    9 2
  15    9   27 1
  16   11   12 1
  17   11   16 1
  18   11   28 1
  19   12   13 1
  20   12   29 1
  21   12   30 1
  22   13   14 1
  23   13   31 1
  24   13   32 1
  25   14   15 1
  26   15   16 1
  27   15   33 1
  28   15   34 1
  29   16   35 1
  30   16   36 1
  31   17   18 1
  32   17   20 1
  33   17   37 1
  34   18   19 1
  35   18   21 1
  36   18   38 1
  37   19   20 1
  38   19   39 1
  39   19   40 1
  40   20   41 1
  41   20   42 1
  42   21   22 1
  43   21   25 2
  44   22   23 1
  45   23   24 2
  46   23   43 1
  47   24   25 1
  48   24   44 1

#	End of record

