#	Name: ASD08150329
#	Creating user name:	WinNT
#	Creation time:	15. 06. 2019 21:15

#	Modifying user name:	WinNT
#	Modification time:	15. 06. 2019 21:15

#	Program:	/corina/corina34_cracker 3.40 0067  02.08.2006

@<TRIPOS>MOLECULE
ASD08150329
  84   90    0    0    0
SMALL
NO_CHARGES


@<TRIPOS>ATOM
   1 N1            -0.2243     0.9426     0.1401 N.am    
   2 C2             0.6885     1.2697    -0.7952 C.2     
   3 C3             1.9384     0.6199    -0.8450 C.2     
   4 C4             2.2403    -0.3503     0.0551 C.2     
   5 C5             1.2825    -0.6966     1.0407 C.ar    
   6 C6             1.5450    -1.6952     1.9980 C.ar    
   7 N7             0.6596    -2.0126     2.9061 N.ar    
   8 C8            -0.5385    -1.4132     2.9808 C.ar    
   9 C9            -0.8882    -0.3965     2.0583 C.ar    
  10 C10            0.0475    -0.0301     1.0624 C.ar    
  11 C11           -2.1395     0.2212     2.1440 C.ar    
  12 C12           -3.0269    -0.1694     3.1339 C.ar    
  13 C13           -2.6736    -1.1761     4.0435 C.ar    
  14 C14           -1.4602    -1.7861     3.9729 C.ar    
  15 O15            0.4298     2.1392    -1.6099 O.2     
  16 C16           -4.3563     0.4806     3.2320 C.ar    
  17 C17           -1.4574     1.6070     0.1718 C.ar    
  18 C18           -1.6013     2.7688     0.9196 C.ar    
  19 C19           -2.8158     3.4234     0.9510 C.ar    
  20 C20           -3.8947     2.9203     0.2345 C.ar    
  21 C21           -3.7507     1.7586    -0.5132 C.ar    
  22 C22           -2.5341     1.1072    -0.5489 C.ar    
  23 N23           -5.1252     3.5830     0.2665 N.3     
  24 C24           -4.6448     1.6198     2.4638 C.ar    
  25 C25           -5.2987     4.3099     1.5306 C.3     
  26 C26           -6.7093     4.9004     1.5916 C.3     
  27 C27           -6.9131     5.8465     0.4050 C.3     
  28 C28           -6.6793     5.0764    -0.8976 C.3     
  29 C29           -5.2696     4.4809    -0.8865 C.3     
  30 C30           -8.3205     6.3848     0.4261 C.2     
  31 O31           -9.0863     6.0460     1.3034 O.2     
  32 N32           -8.7281     7.2429    -0.5299 N.am    
  33 C33          -10.0963     7.7663    -0.5094 C.3     
  34 N34           -5.8093     2.2137     2.5297 N.ar    
  35 C35           -6.7817     1.7658     3.3311 C.ar    
  36 C36           -6.5674     0.6202     4.1384 C.ar    
  37 C37           -5.3260    -0.0361     4.0792 C.ar    
  38 C38           -8.0259     2.4175     3.3887 C.ar    
  39 C39           -9.0003     1.9435     4.2122 C.ar    
  40 C40           -8.7875     0.8175     5.0051 C.ar    
  41 C41           -7.5963     0.1592     4.9772 C.ar    
  42 C42          -10.2986     8.7114    -1.6955 C.3     
  43 N43          -11.6705     9.2362    -1.6749 N.3     
  44 C44          -11.8335    10.3220    -2.6509 C.3     
  45 C45          -12.6475     8.1650    -1.9111 C.3     
  46 C46           -4.9209     1.2125    -1.2900 C.3     
  47 F47           -4.5753    -0.0237    -1.8463 F       
  48 F48           -6.0142     1.0487    -0.4326 F       
  49 F49           -5.2597     2.1056    -2.3122 F       
  50 H50            2.6581     0.8947    -1.6019 H       
  51 H51            3.1963    -0.8514     0.0205 H       
  52 H52            2.4950    -2.2086     1.9816 H       
  53 H53           -2.4123     0.9973     1.4442 H       
  54 H54           -3.3743    -1.4710     4.8105 H       
  55 H55           -1.2046    -2.5599     4.6816 H       
  56 H56           -0.7627     3.1596     1.4768 H       
  57 H57           -2.9277     4.3264     1.5327 H       
  58 H58           -2.4209     0.2064    -1.1338 H       
  59 H59           -3.8878     2.0157     1.8031 H       
  60 H60           -5.1553     3.6248     2.3662 H       
  61 H61           -4.5655     5.1142     1.5906 H       
  62 H62           -7.4430     4.0956     1.5455 H       
  63 H63           -6.8325     5.4530     2.5230 H       
  64 H64           -6.2050     6.6725     0.4720 H       
  65 H65           -7.4125     4.2744    -0.9829 H       
  66 H66           -6.7810     5.7548    -1.7447 H       
  67 H67           -4.5364     5.2843    -0.8151 H       
  68 H68           -5.1050     3.9199    -1.8064 H       
  69 H69           -8.1156     7.5139    -1.2316 H       
  70 H70          -10.8028     6.9392    -0.5793 H       
  71 H71          -10.2636     8.3095     0.4207 H       
  72 H72           -5.1301    -0.9113     4.6809 H       
  73 H73           -8.2079     3.2920     2.7816 H       
  74 H74           -9.9541     2.4486     4.2520 H       
  75 H75           -9.5776     0.4628     5.6503 H       
  76 H76           -7.4430    -0.7126     5.5960 H       
  77 H77           -9.5921     9.5385    -1.6256 H       
  78 H78          -10.1313     8.1682    -2.6256 H       
  79 H79          -11.6178     9.9466    -3.6513 H       
  80 H80          -12.8580    10.6922    -2.6148 H       
  81 H81          -11.1455    11.1326    -2.4109 H       
  82 H82          -12.5514     7.4076    -1.1331 H       
  83 H83          -13.6548     8.5810    -1.8906 H       
  84 H84          -12.4614     7.7116    -2.8846 H       
@<TRIPOS>BOND
   1    1    2 am
   2    1   10 1
   3    1   17 1
   4    2    3 1
   5    2   15 2
   6    3    4 2
   7    3   50 1
   8    4    5 1
   9    4   51 1
  10    5    6 ar
  11    5   10 ar
  12    6    7 ar
  13    6   52 1
  14    7    8 ar
  15    8    9 ar
  16    8   14 ar
  17    9   10 ar
  18    9   11 ar
  19   11   12 ar
  20   11   53 1
  21   12   13 ar
  22   12   16 1
  23   13   14 ar
  24   13   54 1
  25   14   55 1
  26   16   24 ar
  27   16   37 ar
  28   17   18 ar
  29   17   22 ar
  30   18   19 ar
  31   18   56 1
  32   19   20 ar
  33   19   57 1
  34   20   21 ar
  35   20   23 1
  36   21   22 ar
  37   21   46 1
  38   22   58 1
  39   23   25 1
  40   23   29 1
  41   24   34 ar
  42   24   59 1
  43   25   26 1
  44   25   60 1
  45   25   61 1
  46   26   27 1
  47   26   62 1
  48   26   63 1
  49   27   28 1
  50   27   30 1
  51   27   64 1
  52   28   29 1
  53   28   65 1
  54   28   66 1
  55   29   67 1
  56   29   68 1
  57   30   31 2
  58   30   32 am
  59   32   33 1
  60   32   69 1
  61   33   42 1
  62   33   70 1
  63   33   71 1
  64   34   35 ar
  65   35   36 ar
  66   35   38 ar
  67   36   37 ar
  68   36   41 ar
  69   37   72 1
  70   38   39 ar
  71   38   73 1
  72   39   40 ar
  73   39   74 1
  74   40   41 ar
  75   40   75 1
  76   41   76 1
  77   42   43 1
  78   42   77 1
  79   42   78 1
  80   43   44 1
  81   43   45 1
  82   44   79 1
  83   44   80 1
  84   44   81 1
  85   45   82 1
  86   45   83 1
  87   45   84 1
  88   46   47 1
  89   46   48 1
  90   46   49 1

#	End of record

