#	Name: ASD01151004
#	Creating user name:	WinNT
#	Creation time:	15. 06. 2019 19:05

#	Modifying user name:	WinNT
#	Modification time:	15. 06. 2019 19:05

#	Program:	/corina/corina34_cracker 3.40 0067  02.08.2006

@<TRIPOS>MOLECULE
ASD01151004
  27   27    0    0    0
SMALL
NO_CHARGES


@<TRIPOS>ATOM
   1 C1            -0.0158     1.3057     0.0086 C.2     
   2 N2            -1.1967     1.9657    -0.1221 N.pl3   
   3 C3            -2.4568     1.2185    -0.1273 C.3     
   4 C4            -3.6088     2.1774    -0.2840 C.ar    
   5 C5            -4.0669     2.5070    -1.5459 C.ar    
   6 C6            -5.1235     3.3867    -1.6896 C.ar    
   7 C7            -5.7223     3.9363    -0.5715 C.ar    
   8 C8            -5.2648     3.6060     0.6904 C.ar    
   9 C9            -4.2109     2.7230     0.8343 C.ar    
  10 N10           -0.0044     0.0020     0.1300 N.2     
  11 C11            1.2808     2.0737     0.0077 C.3     
  12 C12            1.4741     2.7497     1.3665 C.3     
  13 C13            1.1740    -0.6665     0.1476 C.1     
  14 N14            2.1620    -1.2270     0.1624 N.1     
  15 H15           -1.2051     2.9315    -0.2121 H       
  16 H16           -2.4568     0.5119    -0.9572 H       
  17 H17           -2.5612     0.6757     0.8121 H       
  18 H18           -3.5991     2.0776    -2.4195 H       
  19 H19           -5.4810     3.6448    -2.6755 H       
  20 H20           -6.5474     4.6241    -0.6838 H       
  21 H21           -5.7323     4.0357     1.5640 H       
  22 H22           -3.8534     2.4649     1.8202 H       
  23 H23            2.1084     1.3892    -0.1787 H       
  24 H24            1.2533     2.8321    -0.7748 H       
  25 H25            1.4134     2.0012     2.1566 H       
  26 H26            2.4514     3.2315     1.3969 H       
  27 H27            0.6954     3.4979     1.5142 H       
@<TRIPOS>BOND
   1    1   10 2
   2    1   11 1
   3    1    2 1
   4    2    3 1
   5    2   15 1
   6    3    4 1
   7    3   16 1
   8    3   17 1
   9    4    5 ar
  10    4    9 ar
  11    5    6 ar
  12    5   18 1
  13    6    7 ar
  14    6   19 1
  15    7    8 ar
  16    7   20 1
  17    8    9 ar
  18    8   21 1
  19    9   22 1
  20   10   13 1
  21   11   12 1
  22   11   23 1
  23   11   24 1
  24   12   25 1
  25   12   26 1
  26   12   27 1
  27   13   14 3

#	End of record

