#	Name: ASD07300493
#	Creating user name:	WinNT
#	Creation time:	15. 06. 2019 21:09

#	Modifying user name:	WinNT
#	Modification time:	15. 06. 2019 21:09

#	Program:	/corina/corina34_cracker 3.40 0067  02.08.2006

@<TRIPOS>MOLECULE
ASD07300493
  40   43    0    0    0
SMALL
NO_CHARGES


@<TRIPOS>ATOM
   1 C1            -0.0168     1.3865     0.0097 C.ar    
   2 C2             0.0021    -0.0041     0.0020 C.ar    
   3 C3             1.2002    -0.6829    -0.0134 C.ar    
   4 C4             2.3767     0.0578    -0.0210 C.ar    
   5 C5             2.2970     1.4364    -0.0128 C.ar    
   6 N6             1.1336     2.0539     0.0023 N.ar    
   7 N7            -1.3307     1.8466     0.0303 N.am    
   8 C8            -1.4399    -0.4518     0.0142 C.3     
   9 C9            -2.2242     0.8433     0.0374 C.2     
  10 O10           -3.4318     0.9541     0.0547 O.2     
  11 C11           -1.6818     3.2042     0.0429 C.ar    
  12 C12           -3.0195     3.5754     0.0633 C.ar    
  13 C13           -3.3646     4.9123     0.0756 C.ar    
  14 C14           -2.3750     5.8846     0.0675 C.ar    
  15 C15           -1.0383     5.5143     0.0470 C.ar    
  16 C16           -0.6918     4.1776     0.0405 C.ar    
  17 O17           -2.7155     7.2008     0.0791 O.3     
  18 C18           -1.6454     8.1478     0.0697 C.3     
  19 C19           -2.2106     9.5447     0.0848 C.ar    
  20 C20           -2.4537    10.1790     1.2888 C.ar    
  21 C21           -2.9722    11.4603     1.3026 C.ar    
  22 C22           -3.2472    12.1076     0.1125 C.ar    
  23 C23           -3.0033    11.4736    -1.0914 C.ar    
  24 C24           -2.4807    10.1939    -1.1053 C.ar    
  25 H25            1.2252    -1.7626    -0.0191 H       
  26 H26            3.3368    -0.4366    -0.0327 H       
  27 H27            3.2061     2.0195    -0.0182 H       
  28 H28           -1.6691    -1.0273    -0.8826 H       
  29 H29           -1.6510    -1.0369     0.9094 H       
  30 H30           -3.7900     2.8186     0.0693 H       
  31 H31           -4.4052     5.2012     0.0912 H       
  32 H32           -0.2683     6.2716     0.0403 H       
  33 H33            0.3490     3.8895     0.0294 H       
  34 H34           -1.0208     7.9990     0.9506 H       
  35 H35           -1.0448     8.0086    -0.8292 H       
  36 H36           -2.2388     9.6733     2.2186 H       
  37 H37           -3.1628    11.9556     2.2433 H       
  38 H38           -3.6530    13.1084     0.1234 H       
  39 H39           -3.2185    11.9792    -2.0212 H       
  40 H40           -2.2867     9.7001    -2.0460 H       
@<TRIPOS>BOND
   1    1    2 ar
   2    1    6 ar
   3    1    7 1
   4    2    3 ar
   5    2    8 1
   6    3    4 ar
   7    3   25 1
   8    4    5 ar
   9    4   26 1
  10    5    6 ar
  11    5   27 1
  12    7    9 am
  13    7   11 1
  14    8    9 1
  15    8   28 1
  16    8   29 1
  17    9   10 2
  18   11   12 ar
  19   11   16 ar
  20   12   13 ar
  21   12   30 1
  22   13   14 ar
  23   13   31 1
  24   14   15 ar
  25   14   17 1
  26   15   16 ar
  27   15   32 1
  28   16   33 1
  29   17   18 1
  30   18   19 1
  31   18   34 1
  32   18   35 1
  33   19   20 ar
  34   19   24 ar
  35   20   21 ar
  36   20   36 1
  37   21   22 ar
  38   21   37 1
  39   22   23 ar
  40   22   38 1
  41   23   24 ar
  42   23   39 1
  43   24   40 1

#	End of record

