#	Name: ASD03080061
#	Creating user name:	WinNT
#	Creation time:	15. 06. 2019 20:26

#	Modifying user name:	WinNT
#	Modification time:	15. 06. 2019 20:26

#	Program:	/corina/corina34_cracker 3.40 0067  02.08.2006

@<TRIPOS>MOLECULE
ASD03080061
  25   27    0    0    0
SMALL
NO_CHARGES


@<TRIPOS>ATOM
   1 O1            -0.0144     1.2086     0.0087 O.3     
   2 N2             0.0021    -0.0041     0.0020 N.2     
   3 C3             1.2351    -0.4415    -0.0121 C.2     
   4 N4             2.0451     0.6377    -0.0140 N.2     
   5 C5             1.2407     1.6828    -0.0008 C.2     
   6 C6             3.0170    -2.1937    -0.0376 C.ar    
   7 C7             1.6638    -1.8626    -0.0234 C.ar    
   8 C8             0.7168    -2.8898    -0.0195 C.ar    
   9 C9             1.1678    -4.1989    -0.0299 C.ar    
  10 C10            2.5282    -4.4454    -0.0438 C.ar    
  11 N11            3.3988    -3.4542    -0.0472 N.ar    
  12 C12            1.1100     5.4415     0.0190 C.ar    
  13 C13            0.6876     4.1252     0.0166 C.ar    
  14 C14            1.6451     3.1064     0.0023 C.ar    
  15 C15            2.9965     3.4700    -0.0086 C.ar    
  16 C16            3.3297     4.8090    -0.0048 C.ar    
  17 N17            2.3953     5.7400     0.0084 N.ar    
  18 Cl18          -0.0659     6.7185     0.0294 Cl      
  19 H19            3.7596    -1.4095    -0.0453 H       
  20 H20           -0.3402    -2.6683    -0.0082 H       
  21 H21            0.4645    -5.0185    -0.0269 H       
  22 H22            2.8837    -5.4652    -0.0517 H       
  23 H23           -0.3658     3.8874     0.0257 H       
  24 H24            3.7673     2.7137    -0.0195 H       
  25 H25            4.3700     5.0989    -0.0132 H       
@<TRIPOS>BOND
   1    1    2 1
   2    1    5 1
   3    2    3 2
   4    3    4 1
   5    3    7 1
   6    4    5 2
   7    5   14 1
   8    6    7 ar
   9    6   11 ar
  10    6   19 1
  11    7    8 ar
  12    8    9 ar
  13    8   20 1
  14    9   10 ar
  15    9   21 1
  16   10   11 ar
  17   10   22 1
  18   12   13 ar
  19   12   17 ar
  20   12   18 1
  21   13   14 ar
  22   13   23 1
  23   14   15 ar
  24   15   16 ar
  25   15   24 1
  26   16   17 ar
  27   16   25 1

#	End of record

