#	Name: ASD01202034
#	Creating user name:	WinNT
#	Creation time:	15. 06. 2019 19:09

#	Modifying user name:	WinNT
#	Modification time:	15. 06. 2019 19:09

#	Program:	/corina/corina34_cracker 3.40 0067  02.08.2006

@<TRIPOS>MOLECULE
ASD01202034
  42   45    0    0    0
SMALL
NO_CHARGES


@<TRIPOS>ATOM
   1 C1            -0.0172     1.4168     0.0098 C.2     
   2 C2             0.0021    -0.0041     0.0020 C.2     
   3 C3             1.2869     1.8236    -0.0004 C.2     
   4 C4            -1.2105     2.2822     0.0205 C.2     
   5 C5             1.3082    -0.3738    -0.0124 C.2     
   6 O6             2.0688     0.7387    -0.0137 O.3     
   7 O7            -1.0844     3.4918     0.0260 O.2     
   8 N8            -2.4412     1.7330     0.0241 N.am    
   9 C9             1.8105    -1.7603    -0.0251 C.ar    
  10 C10           -3.5657     2.5485     0.0342 C.2     
  11 S11           -3.5354     4.2556     0.0353 S.3     
  12 N12           -4.7840     2.1262     0.0384 N.2     
  13 C13           -5.3006     4.2986     0.0497 C.2     
  14 C14           -5.7579     3.0425     0.0484 C.2     
  15 H15           -2.5418     0.7682     0.0197 H       
  16 C16            2.7795    -2.1556    -0.9695 C.ar    
  17 C17            3.2445    -3.4721    -0.9681 C.ar    
  18 C18            2.7561    -4.3743    -0.0474 C.ar    
  19 C19            1.8031    -3.9852     0.8813 C.ar    
  20 C20            1.3343    -2.6886     0.9013 C.ar    
  21 C21            1.7638     3.2531     0.0022 C.3     
  22 C22           -7.2841     3.0505     0.0632 C.3     
  23 C23           -7.6819     4.4751    -0.3728 C.3     
  24 C24           -6.4475     5.2923     0.0584 C.3     
  25 C25            3.2973    -1.1868    -1.9513 C.2     
  26 O26            4.2237    -1.5700    -2.8521 O.3     
  27 O27            2.8892    -0.0421    -1.9489 O.2     
  28 H28           -0.8549    -0.6613     0.0067 H       
  29 H29            3.9866    -3.7836    -1.6884 H       
  30 H30            3.1181    -5.3918    -0.0498 H       
  31 H31            1.4282    -4.7018     1.5970 H       
  32 H32            0.5921    -2.3939     1.6284 H       
  33 H33            1.8884     3.5926     1.0305 H       
  34 H34            2.7181     3.3187    -0.5203 H       
  35 H35            1.0297     3.8819    -0.5015 H       
  36 H36           -7.6734     2.3162    -0.6421 H       
  37 H37           -7.6540     2.8448     1.0676 H       
  38 H38           -7.8240     4.5275    -1.4522 H       
  39 H39           -8.5761     4.8089     0.1537 H       
  40 H40           -6.5897     5.6936     1.0619 H       
  41 H41           -6.2597     6.0987    -0.6505 H       
  42 H42            4.5332    -0.8991    -3.4760 H       
@<TRIPOS>BOND
   1    1    2 1
   2    1    3 2
   3    1    4 1
   4    2    5 2
   5    2   28 1
   6    3   21 1
   7    3    6 1
   8    4    7 2
   9    4    8 am
  10    5    9 1
  11    5    6 1
  12    8   15 1
  13    8   10 1
  14    9   16 ar
  15    9   20 ar
  16   10   12 2
  17   10   11 1
  18   11   13 1
  19   12   14 1
  20   13   14 2
  21   13   24 1
  22   14   22 1
  23   16   17 ar
  24   16   25 1
  25   17   18 ar
  26   17   29 1
  27   18   19 ar
  28   18   30 1
  29   19   20 ar
  30   19   31 1
  31   20   32 1
  32   21   33 1
  33   21   34 1
  34   21   35 1
  35   22   23 1
  36   22   36 1
  37   22   37 1
  38   23   24 1
  39   23   38 1
  40   23   39 1
  41   24   40 1
  42   24   41 1
  43   25   26 1
  44   25   27 2
  45   26   42 1

#	End of record

