#	Name: ASD05170075
#	Creating user name:	WinNT
#	Creation time:	15. 06. 2019 20:57

#	Modifying user name:	WinNT
#	Modification time:	15. 06. 2019 20:57

#	Program:	/corina/corina34_cracker 3.40 0067  02.08.2006

@<TRIPOS>MOLECULE
ASD05170075
  47   50    0    0    0
SMALL
NO_CHARGES


@<TRIPOS>ATOM
   1 C1            -0.2247     1.4615    -1.1225 C.ar    
   2 C2            -0.2361     0.0848    -1.2769 C.ar    
   3 C3             0.9573    -0.6066    -1.1424 C.ar    
   4 C4             2.1196     0.0964    -0.8591 C.ar    
   5 N5             2.0961     1.4120    -0.7176 N.ar    
   6 C6             0.9737     2.1020    -0.8397 C.ar    
   7 O7             0.9945     3.4500    -0.6868 O.3     
   8 C8             2.2584     4.0506    -0.3969 C.3     
   9 C9             2.0868     5.5417    -0.2622 C.2     
  10 C10            0.8833     6.2479    -0.3911 C.2     
  11 N11            3.0374     6.4075     0.0022 N.2     
  12 C12            1.2174     7.5573    -0.1919 C.2     
  13 C13            0.4070     8.7846    -0.1926 C.2     
  14 N14            2.5713     7.5933     0.0600 N.pl3   
  15 C15            3.2554     8.8581     0.3550 C.3     
  16 C16            2.5367     9.9991    -0.3636 C.3     
  17 N17            1.0888     9.9555    -0.1730 N.am    
  18 O18           -0.8089     8.7505    -0.2103 O.2     
  19 C19            0.3911    11.1497     0.0400 C.ar    
  20 C20           -0.8856    12.5801     1.4806 C.ar    
  21 C21           -0.1978    11.4007     1.2724 C.ar    
  22 C22            0.2914    12.0881    -0.9789 C.ar    
  23 C23           -0.3972    13.2662    -0.7664 C.ar    
  24 C24           -0.9878    13.5123     0.4617 C.ar    
  25 F25           -1.6610    14.6654     0.6674 F       
  26 C26            3.2340     9.1107     1.8638 C.3     
  27 O27            3.2925    -0.5722    -0.7252 O.3     
  28 C28            4.4541     0.2074    -0.4335 C.3     
  29 H29           -1.1370     2.0303    -1.2255 H       
  30 H30           -1.1551    -0.4382    -1.4969 H       
  31 H31            0.9824    -1.6803    -1.2564 H       
  32 H32            2.6483     3.6439     0.5362 H       
  33 H33            2.9564     3.8368    -1.2063 H       
  34 H34           -0.0960     5.8445    -0.6022 H       
  35 H35            4.2876     8.8029     0.0091 H       
  36 H36            2.9135    10.9483     0.0173 H       
  37 H37            2.7555     9.9376    -1.4297 H       
  38 H38           -1.3440    12.7756     2.4388 H       
  39 H39           -0.1184    10.6740     2.0673 H       
  40 H40            0.7525    11.8968    -1.9366 H       
  41 H41           -0.4750    13.9962    -1.5585 H       
  42 H42            3.7433     8.2944     2.3761 H       
  43 H43            3.7421    10.0500     2.0822 H       
  44 H44            2.2014     9.1676     2.2081 H       
  45 H45            4.6179     0.9288    -1.2341 H       
  46 H46            4.3094     0.7366     0.5084 H       
  47 H47            5.3209    -0.4484    -0.3524 H       
@<TRIPOS>BOND
   1    1    2 ar
   2    1    6 ar
   3    1   29 1
   4    2    3 ar
   5    2   30 1
   6    3    4 ar
   7    3   31 1
   8    4    5 ar
   9    4   27 1
  10    5    6 ar
  11    6    7 1
  12    7    8 1
  13    8    9 1
  14    8   32 1
  15    8   33 1
  16    9   11 2
  17    9   10 1
  18   10   12 2
  19   10   34 1
  20   11   14 1
  21   12   14 1
  22   12   13 1
  23   13   17 am
  24   13   18 2
  25   14   15 1
  26   15   16 1
  27   15   26 1
  28   15   35 1
  29   16   17 1
  30   16   36 1
  31   16   37 1
  32   17   19 1
  33   19   22 ar
  34   19   21 ar
  35   20   21 ar
  36   20   24 ar
  37   20   38 1
  38   21   39 1
  39   22   23 ar
  40   22   40 1
  41   23   24 ar
  42   23   41 1
  43   24   25 1
  44   26   42 1
  45   26   43 1
  46   26   44 1
  47   27   28 1
  48   28   45 1
  49   28   46 1
  50   28   47 1

#	End of record

