#	Name: ASD03330412
#	Creating user name:	WinNT
#	Creation time:	15. 06. 2019 20:37

#	Modifying user name:	WinNT
#	Modification time:	15. 06. 2019 20:37

#	Program:	/corina/corina34_cracker 3.40 0067  02.08.2006

@<TRIPOS>MOLECULE
ASD03330412
  55   58    0    0    0
SMALL
NO_CHARGES


@<TRIPOS>ATOM
   1 C1            -0.0179     1.4655     0.0101 C.3     
   2 N2             0.0021    -0.0041     0.0020 N.3     
   3 C3             0.4494    -0.5231    -1.3031 C.3     
   4 C4             1.7237     0.1898    -1.6760 C.2     
   5 N5             2.1519     1.3316    -1.0766 N.pl3   
   6 C6             1.4184     2.0045    -0.0007 C.3     
   7 C7             2.6412    -0.1377    -2.6198 C.2     
   8 N8             3.6164     0.7992    -2.5865 N.2     
   9 C9             3.3274     1.6849    -1.6595 C.2     
  10 C10            4.1446     2.8676    -1.3094 C.ar    
  11 C11            5.1552     3.2999    -2.1686 C.ar    
  12 C12            2.5858    -1.3038    -3.5191 C.2     
  13 O13            1.6513    -2.0793    -3.4524 O.2     
  14 C14            3.5154    -2.6701    -5.3097 C.3     
  15 N15            3.5706    -1.5109    -4.4156 N.am    
  16 C16            5.9135     4.4038    -1.8366 C.ar    
  17 C17            5.6734     5.0815    -0.6547 C.ar    
  18 C18            4.6727     4.6578     0.2015 C.ar    
  19 C19            3.9040     3.5585    -0.1215 C.ar    
  20 C20            3.2983    -1.1435    -7.2756 C.3     
  21 C21            2.6696    -2.3273    -6.5377 C.3     
  22 C22            2.6120    -3.5379    -7.4714 C.3     
  23 C23            4.9109    -3.0343    -5.7466 C.2     
  24 C24            1.2528    -1.9575    -6.0940 C.3     
  25 O25            5.4325    -4.2718    -5.7918 O.3     
  26 C26            6.6930    -4.1354    -6.2364 C.2     
  27 N27            6.8989    -2.8656    -6.4428 N.2     
  28 N28            5.8312    -2.2077    -6.1553 N.2     
  29 C29            7.6864    -5.2471    -6.4560 C.3     
  30 H30           -0.5467     1.8255    -0.8724 H       
  31 H31           -0.5297     1.8160     0.9063 H       
  32 H32            0.5772    -0.3620     0.7498 H       
  33 H33            0.6347    -1.5947    -1.2296 H       
  34 H34           -0.3141    -0.3315    -2.0571 H       
  35 H35            1.4064     3.0795    -0.1803 H       
  36 H36            1.8965     1.7963     0.9564 H       
  37 H37            5.3438     2.7714    -3.0914 H       
  38 H38            3.0676    -3.5134    -4.7840 H       
  39 H39            4.3159    -0.8923    -4.4688 H       
  40 H40            6.6963     4.7393    -2.5007 H       
  41 H41            6.2699     5.9449    -0.3992 H       
  42 H42            4.4902     5.1911     1.1228 H       
  43 H43            3.1231     3.2287     0.5477 H       
  44 H44            4.3076    -1.4070    -7.5916 H       
  45 H45            2.6957    -0.8993    -8.1504 H       
  46 H46            3.3393    -0.2810    -6.6104 H       
  47 H47            3.6214    -3.8014    -7.7875 H       
  48 H48            2.1642    -4.3812    -6.9457 H       
  49 H49            2.0095    -3.2937    -8.3463 H       
  50 H50            0.6503    -1.7133    -6.9689 H       
  51 H51            0.8050    -2.8008    -5.5683 H       
  52 H52            1.2939    -1.0950    -5.4288 H       
  53 H53            7.5958    -5.6190    -7.4766 H       
  54 H54            8.6961    -4.8692    -6.2953 H       
  55 H55            7.4858    -6.0573    -5.7550 H       
@<TRIPOS>BOND
   1    1    2 1
   2    1    6 1
   3    1   30 1
   4    1   31 1
   5    2    3 1
   6    2   32 1
   7    3    4 1
   8    3   33 1
   9    3   34 1
  10    4    5 1
  11    4    7 2
  12    5    6 1
  13    5    9 1
  14    6   35 1
  15    6   36 1
  16    7    8 1
  17    7   12 1
  18    8    9 2
  19    9   10 1
  20   10   11 ar
  21   10   19 ar
  22   11   16 ar
  23   11   37 1
  24   12   13 2
  25   12   15 am
  26   14   15 1
  27   14   23 1
  28   14   21 1
  29   14   38 1
  30   15   39 1
  31   16   17 ar
  32   16   40 1
  33   17   18 ar
  34   17   41 1
  35   18   19 ar
  36   18   42 1
  37   19   43 1
  38   20   21 1
  39   20   44 1
  40   20   45 1
  41   20   46 1
  42   21   24 1
  43   21   22 1
  44   22   47 1
  45   22   48 1
  46   22   49 1
  47   23   25 1
  48   23   28 2
  49   24   50 1
  50   24   51 1
  51   24   52 1
  52   25   26 1
  53   26   27 2
  54   26   29 1
  55   27   28 1
  56   29   53 1
  57   29   54 1
  58   29   55 1

#	End of record

