#	Name: ASD09740208
#	Creating user name:	WinNT
#	Creation time:	15. 06. 2019 21:22

#	Modifying user name:	WinNT
#	Modification time:	15. 06. 2019 21:22

#	Program:	/corina/corina34_cracker 3.40 0067  02.08.2006

@<TRIPOS>MOLECULE
ASD09740208
  34   36    0    0    0
SMALL
NO_CHARGES


@<TRIPOS>ATOM
   1 O1            -0.0144     1.2085     0.0087 O.3     
   2 N2             0.0021    -0.0041     0.0020 N.2     
   3 C3             1.2411     1.6826    -0.0008 C.2     
   4 N4             2.0453     0.6364    -0.0141 N.2     
   5 C5             1.2344    -0.4420    -0.0121 C.2     
   6 C6             1.6624    -1.8642    -0.0234 C.ar    
   7 C7             1.6456     3.1046     0.0023 C.ar    
   8 C8             3.0191    -2.2052    -0.0377 C.ar    
   9 C9             0.7229    -2.8935    -0.0141 C.ar    
  10 C10            1.1673    -4.2105    -0.0248 C.ar    
  11 N11            2.4621    -4.4867    -0.0434 N.ar    
  12 C12            3.3779    -3.5363    -0.0474 C.ar    
  13 C13            2.9984     3.4485    -0.0092 C.ar    
  14 C14            3.3692     4.7771    -0.0068 C.ar    
  15 C15            2.4034     5.7681     0.0075 C.ar    
  16 C16            1.0611     5.4340     0.0189 C.ar    
  17 C17            0.6767     4.1088     0.0108 C.ar    
  18 C18            2.8159     7.2175     0.0111 C.3     
  19 N19            0.2426    -5.2486    -0.0153 N.pl3   
  20 C20            0.0162     6.5199     0.0344 C.3     
  21 F21           -1.2575     5.9413     0.0440 F       
  22 F22            0.1792     7.3076     1.1790 F       
  23 F23            0.1569     7.3188    -1.1054 F       
  24 H24            3.7762    -1.4351    -0.0415 H       
  25 H25           -0.3339    -2.6714     0.0014 H       
  26 H26            4.4237    -3.8053    -0.0628 H       
  27 H27            3.7532     2.6760    -0.0196 H       
  28 H28            4.4155     5.0446    -0.0157 H       
  29 H29           -0.3716     3.8493     0.0194 H       
  30 H30            2.9056     7.5723    -1.0157 H       
  31 H31            2.0642     7.8079     0.5351 H       
  32 H32            3.7761     7.3208     0.5164 H       
  33 H33           -0.7071    -5.0520    -0.0013 H       
  34 H34            0.5472    -6.1695    -0.0226 H       
@<TRIPOS>BOND
   1    1    2 1
   2    1    3 1
   3    2    5 2
   4    3    4 2
   5    3    7 1
   6    4    5 1
   7    5    6 1
   8    6    8 ar
   9    6    9 ar
  10    7   13 ar
  11    7   17 ar
  12    8   12 ar
  13    8   24 1
  14    9   10 ar
  15    9   25 1
  16   10   11 ar
  17   10   19 1
  18   11   12 ar
  19   12   26 1
  20   13   14 ar
  21   13   27 1
  22   14   15 ar
  23   14   28 1
  24   15   16 ar
  25   15   18 1
  26   16   17 ar
  27   16   20 1
  28   17   29 1
  29   18   30 1
  30   18   31 1
  31   18   32 1
  32   19   33 1
  33   19   34 1
  34   20   21 1
  35   20   22 1
  36   20   23 1

#	End of record

