#	Name: ASD05490212
#	Creating user name:	WinNT
#	Creation time:	15. 06. 2019 21:01

#	Modifying user name:	WinNT
#	Modification time:	15. 06. 2019 21:01

#	Program:	/corina/corina34_cracker 3.40 0067  02.08.2006

@<TRIPOS>MOLECULE
ASD05490212
  69   74    0    0    0
SMALL
NO_CHARGES


@<TRIPOS>ATOM
   1 N1            -0.0159     1.3208     0.0093 N.ar    
   2 C2             0.0021    -0.0041     0.0020 C.ar    
   3 C3             1.1987    -0.7015    -0.0132 C.ar    
   4 C4             2.3925     0.0113    -0.0207 C.ar    
   5 C5             2.3390     1.4074    -0.0127 C.ar    
   6 C6             1.0996     2.0376     0.0025 C.ar    
   7 O7            -1.1704    -0.6885     0.0100 O.3     
   8 N8             1.0295     3.4275     0.0106 N.pl3   
   9 C9            -2.3725     0.0841     0.0261 C.3     
  10 C10           -3.5813    -0.8537     0.0331 C.3     
  11 C11           -4.8663    -0.0322     0.1760 C.3     
  12 N12            3.7329    -0.3423    -0.0354 N.am    
  13 C13            4.4718     0.7840    -0.0364 C.2     
  14 N14            3.6596     1.8589    -0.0229 N.am    
  15 O15            5.6880     0.8245    -0.0472 O.2     
  16 C16            4.2573    -1.7101    -0.0478 C.3     
  17 C17            4.4235    -2.1715    -1.4727 C.ar    
  18 C18            5.6195    -1.9531    -2.1326 C.ar    
  19 C19            3.3816    -2.8169    -2.1140 C.ar    
  20 C20            3.5282    -3.2416    -3.4189 C.ar    
  21 C21            4.7289    -3.0192    -4.0906 C.ar    
  22 C22            5.7773    -2.3735    -3.4376 C.ar    
  23 C23           -6.0735    -0.9708     0.1030 C.3     
  24 C24            4.8927    -3.4738    -5.4931 C.2     
  25 O25           -6.0429    -1.6888    -1.1322 O.3     
  26 C26           -4.8865    -2.5114    -1.3004 C.3     
  27 C27           -3.6316    -1.6347    -1.2837 C.3     
  28 C28            3.8892    -4.0198    -6.2093 C.2     
  29 N29            6.0368    -3.3740    -6.1545 N.2     
  30 C30            6.0527    -3.8040    -7.3684 C.2     
  31 S31            4.5165    -4.4103    -7.8086 S.3     
  32 C32            7.2564    -3.7743    -8.2747 C.3     
  33 N33            8.0174    -5.0212    -8.1191 N.3     
  34 C34            9.0624    -5.1349    -9.1530 C.3     
  35 C35            8.6612    -5.0866    -6.7898 C.3     
  36 C36            9.9909    -5.8437    -7.0311 C.3     
  37 C37           10.4115    -5.3025    -8.4229 C.3     
  38 H38            1.2044    -1.7815    -0.0187 H       
  39 H39            1.8441     3.9542     0.0057 H       
  40 H40            0.1662     3.8696     0.0213 H       
  41 H41           -2.3914     0.7080     0.9197 H       
  42 H42           -2.4091     0.7175    -0.8602 H       
  43 H43           -3.4984    -1.5493     0.8682 H       
  44 H44           -4.8637     0.4839     1.1361 H       
  45 H45           -4.9234     0.6982    -0.6310 H       
  46 H46            3.9436     2.7863    -0.0206 H       
  47 H47            5.2232    -1.7335     0.4567 H       
  48 H48            3.5613    -2.3708     0.4692 H       
  49 H49            6.4311    -1.4523    -1.6258 H       
  50 H50            2.4517    -2.9891    -1.5924 H       
  51 H51            2.7142    -3.7458    -3.9185 H       
  52 H52            6.7098    -2.1982    -3.9535 H       
  53 H53           -6.0371    -1.6753     0.9339 H       
  54 H54           -6.9920    -0.3868     0.1612 H       
  55 H55           -4.8346    -3.2360    -0.4878 H       
  56 H56           -4.9499    -3.0372    -2.2531 H       
  57 H57           -3.6637    -0.9367    -2.1202 H       
  58 H58           -2.7460    -2.2647    -1.3676 H       
  59 H59            2.8800    -4.1882    -5.8637 H       
  60 H60            6.9296    -3.6748    -9.3097 H       
  61 H61            7.8892    -2.9270    -8.0105 H       
  62 H62            8.8699    -6.0049    -9.7807 H       
  63 H63            9.0805    -4.2316    -9.7629 H       
  64 H64            8.8589    -4.0827    -6.4141 H       
  65 H65            8.0324    -5.6375    -6.0904 H       
  66 H66           10.7300    -5.5864    -6.2724 H       
  67 H67            9.8265    -6.9208    -7.0644 H       
  68 H68           11.0436    -6.0232    -8.9417 H       
  69 H69           10.9191    -4.3427    -8.3258 H       
@<TRIPOS>BOND
   1    1    2 ar
   2    1    6 ar
   3    2    3 ar
   4    2    7 1
   5    3    4 ar
   6    3   38 1
   7    4    5 ar
   8    4   12 1
   9    5    6 ar
  10    5   14 1
  11    6    8 1
  12    7    9 1
  13    8   39 1
  14    8   40 1
  15    9   10 1
  16    9   41 1
  17    9   42 1
  18   10   11 1
  19   10   27 1
  20   10   43 1
  21   11   23 1
  22   11   44 1
  23   11   45 1
  24   12   13 am
  25   12   16 1
  26   13   14 am
  27   13   15 2
  28   14   46 1
  29   16   17 1
  30   16   47 1
  31   16   48 1
  32   17   18 ar
  33   17   19 ar
  34   18   22 ar
  35   18   49 1
  36   19   20 ar
  37   19   50 1
  38   20   21 ar
  39   20   51 1
  40   21   22 ar
  41   21   24 1
  42   22   52 1
  43   23   25 1
  44   23   53 1
  45   23   54 1
  46   24   28 2
  47   24   29 1
  48   25   26 1
  49   26   27 1
  50   26   55 1
  51   26   56 1
  52   27   57 1
  53   27   58 1
  54   28   31 1
  55   28   59 1
  56   29   30 2
  57   30   31 1
  58   30   32 1
  59   32   33 1
  60   32   60 1
  61   32   61 1
  62   33   34 1
  63   33   35 1
  64   34   37 1
  65   34   62 1
  66   34   63 1
  67   35   36 1
  68   35   64 1
  69   35   65 1
  70   36   37 1
  71   36   66 1
  72   36   67 1
  73   37   68 1
  74   37   69 1

#	End of record

