#	Name: ASD01411082
#	Creating user name:	WinNT
#	Creation time:	15. 06. 2019 19:19

#	Modifying user name:	WinNT
#	Modification time:	15. 06. 2019 19:19

#	Program:	/corina/corina34_cracker 3.40 0067  02.08.2006

@<TRIPOS>MOLECULE
ASD01411082
  40   42    0    0    0
SMALL
NO_CHARGES


@<TRIPOS>ATOM
   1 C1            -0.0175     1.4408     0.0100 C.2     
   2 C2             0.0021    -0.0041     0.0020 C.ar    
   3 C3             1.2698     1.8584    -0.0001 C.2     
   4 C4            -1.1913     2.3873     0.0318 C.3     
   5 C5             1.3719    -0.3752    -0.0126 C.ar    
   6 C6            -1.0105    -0.9702     0.0058 C.ar    
   7 C7             1.6531     3.3196     0.0023 C.3     
   8 N8             2.1067     0.7772    -0.0128 N.pl3   
   9 C9            -0.6692     3.7763     0.4266 C.3     
  10 C10            1.7455    -1.7180    -0.0241 C.ar    
  11 C11           -0.6102    -2.2950    -0.0057 C.ar    
  12 Cl12          -2.6890    -0.5279     0.0246 Cl      
  13 O13            0.4938     4.0866    -0.3463 O.3     
  14 C14            2.1323     3.7174     1.3746 C.2     
  15 C15            2.7623     3.5641    -1.0228 C.3     
  16 C16            0.7268    -2.6564    -0.0204 C.ar    
  17 Cl17           3.4150    -2.1935    -0.0428 Cl      
  18 C18            3.2255     4.9952    -0.9301 C.2     
  19 H19            3.0757     0.8214    -0.0211 H       
  20 O20            2.7202     5.7428    -0.1266 O.2     
  21 O21            4.1993     5.4392    -1.7402 O.3     
  22 H22            4.4626     6.3646    -1.6437 H       
  23 C23            1.5099     4.6602     2.0379 C.2     
  24 C24            1.9891     5.0580     3.4102 C.3     
  25 C25            2.2572     6.5640     3.4401 C.3     
  26 H26           -1.6475     2.4321    -0.9571 H       
  27 H27           -1.9254     2.0478     0.7625 H       
  28 H28           -1.4416     4.5220     0.2381 H       
  29 H29           -0.4112     3.7801     1.4856 H       
  30 H30           -1.3625    -3.0698    -0.0030 H       
  31 H31            2.9888     3.2253     1.8112 H       
  32 H32            3.5998     2.8972    -0.8179 H       
  33 H33            2.3801     3.3700    -2.0249 H       
  34 H34            0.9836    -3.7053    -0.0291 H       
  35 H35            0.6534     5.1523     1.6013 H       
  36 H36            1.2256     4.8101     4.1476 H       
  37 H37            2.9081     4.5206     3.6441 H       
  38 H38            2.6038     6.8517     4.4326 H       
  39 H39            3.0207     6.8118     2.7027 H       
  40 H40            1.3381     7.1014     3.2062 H       
@<TRIPOS>BOND
   1    1    2 1
   2    1    3 2
   3    1    4 1
   4    2    5 ar
   5    2    6 ar
   6    3    7 1
   7    3    8 1
   8    4    9 1
   9    4   26 1
  10    4   27 1
  11    5   10 ar
  12    5    8 1
  13    6   11 ar
  14    6   12 1
  15    7   14 1
  16    7   15 1
  17    7   13 1
  18    8   19 1
  19    9   13 1
  20    9   28 1
  21    9   29 1
  22   10   16 ar
  23   10   17 1
  24   11   16 ar
  25   11   30 1
  26   14   23 2
  27   14   31 1
  28   15   18 1
  29   15   32 1
  30   15   33 1
  31   16   34 1
  32   18   20 2
  33   18   21 1
  34   21   22 1
  35   23   24 1
  36   23   35 1
  37   24   25 1
  38   24   36 1
  39   24   37 1
  40   25   38 1
  41   25   39 1
  42   25   40 1

#	End of record

