#	Name: ASD01901269
#	Creating user name:	WinNT
#	Creation time:	15. 06. 2019 19:53

#	Modifying user name:	WinNT
#	Modification time:	15. 06. 2019 19:53

#	Program:	/corina/corina34_cracker 3.40 0067  02.08.2006

@<TRIPOS>MOLECULE
ASD01901269
  45   48    0    0    0
SMALL
NO_CHARGES


@<TRIPOS>ATOM
   1 C1             0.1677     1.3420     0.0091 C.ar    
   2 C2             0.2279    -0.0359     0.0125 C.ar    
   3 C3             1.4531    -0.6782     0.0490 C.ar    
   4 C4             2.6260     0.0554     0.0824 C.ar    
   5 C5             2.5814     1.4339     0.0799 C.ar    
   6 C6             1.3479     2.0895     0.0427 C.ar    
   7 C7             1.2936     3.5205     0.0389 C.1     
   8 C8             1.2490     4.6937     0.0358 C.1     
   9 C9             1.1946     6.1246     0.0320 C.ar    
  10 C10           -0.0400     8.1711    -0.0012 C.ar    
  11 C11           -0.0397     6.7903     0.0006 C.ar    
  12 C12            2.3698     6.8791     0.0655 C.ar    
  13 N13            2.3222     8.1948     0.0625 N.ar    
  14 C14            1.1728     8.8516     0.0282 C.ar    
  15 N15            1.1783    10.2473     0.0260 N.am    
  16 N16            1.1051    12.2495     1.2708 N.am    
  17 C17            1.1047    10.9076     1.1922 C.2     
  18 C18            1.2633    10.9075    -1.1493 C.2     
  19 C19            1.2676    12.3808    -1.1239 C.ar    
  20 C20            1.1831    13.0248     0.1229 C.ar    
  21 C21            1.1846    14.4100     0.1806 C.ar    
  22 C22            1.3529    13.1335    -2.2930 C.ar    
  23 C23            1.3537    14.5104    -2.2157 C.ar    
  24 C24            1.2631    15.1445    -0.9859 C.ar    
  25 C25            1.0220    12.8996     2.5810 C.3     
  26 O26            1.3347    10.3017    -2.2012 O.2     
  27 C27           -1.3400     8.9325    -0.0353 C.3     
  28 O28            1.0342    10.2646     2.2215 O.2     
  29 F29           -2.4023     8.0348    -0.1869 F       
  30 F30           -1.4963     9.6422     1.1602 F       
  31 F31           -1.3284     9.8272    -1.1107 F       
  32 H32           -0.7890     1.8420    -0.0239 H       
  33 H33           -0.6833    -0.6149    -0.0131 H       
  34 H34            1.4941    -1.7574     0.0519 H       
  35 H35            3.5785    -0.4527     0.1108 H       
  36 H36            3.4976     2.0052     0.1067 H       
  37 H37           -0.9666     6.2366    -0.0219 H       
  38 H38            3.3263     6.3784     0.0943 H       
  39 H39            1.1242    14.9128     1.1345 H       
  40 H40            1.4184    12.6424    -3.2527 H       
  41 H41            1.4200    15.0985    -3.1191 H       
  42 H42            1.2641    16.2235    -0.9393 H       
  43 H43            0.9678    12.1398     3.3607 H       
  44 H44            1.9063    13.5176     2.7368 H       
  45 H45            0.1301    13.5250     2.6204 H       
@<TRIPOS>BOND
   1    1    2 ar
   2    1    6 ar
   3    1   32 1
   4    2    3 ar
   5    2   33 1
   6    3    4 ar
   7    3   34 1
   8    4    5 ar
   9    4   35 1
  10    5    6 ar
  11    5   36 1
  12    6    7 1
  13    7    8 3
  14    8    9 1
  15    9   12 ar
  16    9   11 ar
  17   10   11 ar
  18   10   14 ar
  19   10   27 1
  20   11   37 1
  21   12   13 ar
  22   12   38 1
  23   13   14 ar
  24   14   15 1
  25   15   18 am
  26   15   17 am
  27   16   17 am
  28   16   20 1
  29   16   25 1
  30   17   28 2
  31   18   19 1
  32   18   26 2
  33   19   22 ar
  34   19   20 ar
  35   20   21 ar
  36   21   24 ar
  37   21   39 1
  38   22   23 ar
  39   22   40 1
  40   23   24 ar
  41   23   41 1
  42   24   42 1
  43   25   43 1
  44   25   44 1
  45   25   45 1
  46   27   29 1
  47   27   30 1
  48   27   31 1

#	End of record

