#	Name: ASD01120060
#	Creating user name:	WinNT
#	Creation time:	15. 06. 2019 18:58

#	Modifying user name:	WinNT
#	Modification time:	15. 06. 2019 18:58

#	Program:	/corina/corina34_cracker 3.40 0067  02.08.2006

@<TRIPOS>MOLECULE
ASD01120060
  51   54    0    0    0
SMALL
NO_CHARGES


@<TRIPOS>ATOM
   1 C1            -0.0156     1.4016    -0.0378 C.ar    
   2 C2             0.0046     0.0002    -0.0595 C.ar    
   3 C3            -1.1693    -0.7204    -0.0510 C.ar    
   4 C4            -2.3943    -0.0433    -0.0199 C.ar    
   5 C5            -2.4068     1.3734     0.0024 C.ar    
   6 C6            -1.1995     2.0822    -0.0017 C.ar    
   7 N7            -3.5657    -0.6989    -0.0108 N.ar    
   8 C8            -4.6990    -0.0364     0.0181 C.ar    
   9 N9            -4.7586     1.2868     0.0398 N.ar    
  10 C10           -3.6602     2.0302     0.0333 C.ar    
  11 N11           -3.7373     3.4084     0.0561 N.pl3   
  12 C12           -4.9809     4.0404    -0.0347 C.ar    
  13 C13           -5.2091     5.2241     0.6509 C.ar    
  14 C14           -6.4497     5.8499     0.5574 C.ar    
  15 C15           -7.4549     5.2832    -0.2245 C.ar    
  16 C16           -7.2200     4.1042    -0.9037 C.ar    
  17 C17           -5.9875     3.4856    -0.8166 C.ar    
  18 C18           -6.7008     7.1161     1.2884 C.2     
  19 O19            1.1564     2.0912    -0.0473 O.3     
  20 O20            1.1946    -0.6543    -0.0897 O.3     
  21 C21            1.0702     3.5174    -0.0241 C.3     
  22 C22            2.4791     4.1138    -0.0389 C.3     
  23 C23            1.1492    -2.0824    -0.1107 C.3     
  24 C24            2.5746    -2.6375    -0.1434 C.3     
  25 C25           -7.8787     7.7704     1.2392 C.2     
  26 S26           -7.7398     9.2105     2.2444 S.3     
  27 C27           -6.1265     8.8003     2.6320 C.2     
  28 N28           -5.7891     7.7009     2.0519 N.2     
  29 C29           -5.2269     9.6085     3.5311 C.3     
  30 Cl30          -6.1848    -0.9341     0.0280 Cl      
  31 H31           -1.1449    -1.8000    -0.0686 H       
  32 H32           -1.2042     3.1620     0.0153 H       
  33 H33           -2.9286     3.9382     0.1350 H       
  34 H34           -4.4272     5.6591     1.2557 H       
  35 H35           -8.4179     5.7664    -0.2989 H       
  36 H36           -8.0004     3.6667    -1.5087 H       
  37 H37           -5.8088     2.5635    -1.3498 H       
  38 H38            0.5203     3.8624    -0.8997 H       
  39 H39            0.5506     3.8353     0.8798 H       
  40 H40            2.4133     5.2017    -0.0212 H       
  41 H41            3.0290     3.7688     0.8367 H       
  42 H42            2.9987     3.7959    -0.9428 H       
  43 H43            0.6393    -2.4429     0.7827 H       
  44 H44            0.6091    -2.4158    -0.9968 H       
  45 H45            3.1148    -2.3042     0.7427 H       
  46 H46            2.5400    -3.7269    -0.1594 H       
  47 H47            3.0845    -2.2771    -1.0368 H       
  48 H48           -8.7525     7.4657     0.6823 H       
  49 H49           -5.7651    10.4858     3.8901 H       
  50 H50           -4.9190     8.9985     4.3803 H       
  51 H51           -4.3459     9.9259     2.9733 H       
@<TRIPOS>BOND
   1    1    2 ar
   2    1   19 1
   3    1    6 ar
   4    2    3 ar
   5    2   20 1
   6    3    4 ar
   7    3   31 1
   8    4    5 ar
   9    4    7 ar
  10    5    6 ar
  11    5   10 ar
  12    6   32 1
  13    7    8 ar
  14    8    9 ar
  15    8   30 1
  16    9   10 ar
  17   10   11 1
  18   11   12 1
  19   11   33 1
  20   12   13 ar
  21   12   17 ar
  22   13   14 ar
  23   13   34 1
  24   14   15 ar
  25   14   18 1
  26   15   16 ar
  27   15   35 1
  28   16   17 ar
  29   16   36 1
  30   17   37 1
  31   18   25 2
  32   18   28 1
  33   19   21 1
  34   20   23 1
  35   21   22 1
  36   21   38 1
  37   21   39 1
  38   22   40 1
  39   22   41 1
  40   22   42 1
  41   23   24 1
  42   23   43 1
  43   23   44 1
  44   24   45 1
  45   24   46 1
  46   24   47 1
  47   25   26 1
  48   25   48 1
  49   26   27 1
  50   27   28 2
  51   27   29 1
  52   29   49 1
  53   29   50 1
  54   29   51 1

#	End of record

