#	Name: ASD04910028
#	Creating user name:	WinNT
#	Creation time:	15. 06. 2019 20:55

#	Modifying user name:	WinNT
#	Modification time:	15. 06. 2019 20:55

#	Program:	/corina/corina34_cracker 3.40 0067  02.08.2006

@<TRIPOS>MOLECULE
ASD04910028
  56   58    0    0    0
SMALL
NO_CHARGES


@<TRIPOS>ATOM
   1 C1            -0.2695     1.4346     0.2406 C.2     
   2 C2            -0.2091    -0.0707     0.2045 C.3     
   3 C3             1.2517    -0.5212     0.1428 C.3     
   4 O4             0.7511     2.0809     0.2192 O.2     
   5 O5            -1.4574     2.0576     0.2910 O.3     
   6 C6             2.5030    -2.6100     0.0515 C.2     
   7 C7             2.5623    -4.0868     0.0160 C.ar    
   8 C8             3.7957    -4.7376    -0.0422 C.ar    
   9 C9             3.8440    -6.1160    -0.0745 C.ar    
  10 C10            2.6733    -6.8530    -0.0499 C.ar    
  11 C11            1.4474    -6.2141     0.0078 C.ar    
  12 C12            1.3853    -4.8365     0.0465 C.ar    
  13 O13            3.5298    -1.9599     0.0299 O.2     
  14 N14            1.3105    -1.9846     0.1077 N.am    
  15 C15            2.7337    -8.3584    -0.0865 C.3     
  16 C16            2.5544    -8.9106     1.3291 C.3     
  17 C17            2.7396   -10.4292     1.3114 C.3     
  18 C18            2.5603   -10.9814     2.7270 C.3     
  19 O19            1.6915    -8.8566    -0.9276 O.3     
  20 C20            1.9543    -9.9902    -1.6303 C.ar    
  21 C21            3.2168   -10.5632    -1.5753 C.ar    
  22 C22            3.4843   -11.7145    -2.2887 C.ar    
  23 C23            2.4897   -12.2990    -3.0614 C.ar    
  24 C24            1.2265   -11.7252    -3.1161 C.ar    
  25 C25            0.9584   -10.5770    -2.3977 C.ar    
  26 N26            2.7610   -13.4683    -3.7867 N.pl3   
  27 N27            3.9851   -14.1456    -3.8191 N.2     
  28 C28            3.8710   -15.1886    -4.5955 C.2     
  29 C29            2.5505   -15.2197    -5.0973 C.2     
  30 C30            1.8860   -14.1327    -4.5654 C.2     
  31 C31            2.0024   -16.1986    -5.9872 C.1     
  32 N32            1.5676   -16.9752    -6.6932 N.1     
  33 H33           -0.6763    -0.4748     1.1026 H       
  34 H34           -0.7391    -0.4346    -0.6758 H       
  35 H35            1.7189    -0.1172    -0.7553 H       
  36 H36            1.7817    -0.1573     1.0231 H       
  37 H37           -1.4456     3.0243     0.3127 H       
  38 H38            4.7101    -4.1634    -0.0622 H       
  39 H39            4.7977    -6.6208    -0.1196 H       
  40 H40            0.5373    -6.7953     0.0268 H       
  41 H41            0.4279    -4.3390     0.0960 H       
  42 H42            0.4911    -2.5034     0.1249 H       
  43 H43            3.7001    -8.6738    -0.4798 H       
  44 H44            3.2953    -8.4618     1.9907 H       
  45 H45            1.5537    -8.6708     1.6886 H       
  46 H46            1.9987   -10.8779     0.6498 H       
  47 H47            3.7403   -10.6690     0.9520 H       
  48 H48            2.6923   -12.0633     2.7144 H       
  49 H49            3.3013   -10.5326     3.3886 H       
  50 H50            1.5596   -10.7416     3.0865 H       
  51 H51            3.9904   -10.1083    -0.9745 H       
  52 H52            4.4671   -12.1602    -2.2461 H       
  53 H53            0.4525   -12.1794    -3.7169 H       
  54 H54           -0.0254   -10.1333    -2.4364 H       
  55 H55            4.6502   -15.9032    -4.8162 H       
  56 H56            0.8552   -13.8637    -4.7428 H       
@<TRIPOS>BOND
   1    1    2 1
   2    1    4 2
   3    1    5 1
   4    2    3 1
   5    2   33 1
   6    2   34 1
   7    3   14 1
   8    3   35 1
   9    3   36 1
  10    5   37 1
  11    6    7 1
  12    6   13 2
  13    6   14 am
  14    7    8 ar
  15    7   12 ar
  16    8    9 ar
  17    8   38 1
  18    9   10 ar
  19    9   39 1
  20   10   11 ar
  21   10   15 1
  22   11   12 ar
  23   11   40 1
  24   12   41 1
  25   14   42 1
  26   15   16 1
  27   15   19 1
  28   15   43 1
  29   16   17 1
  30   16   44 1
  31   16   45 1
  32   17   18 1
  33   17   46 1
  34   17   47 1
  35   18   48 1
  36   18   49 1
  37   18   50 1
  38   19   20 1
  39   20   21 ar
  40   20   25 ar
  41   21   22 ar
  42   21   51 1
  43   22   23 ar
  44   22   52 1
  45   23   24 ar
  46   23   26 1
  47   24   25 ar
  48   24   53 1
  49   25   54 1
  50   26   27 1
  51   26   30 1
  52   27   28 2
  53   28   29 1
  54   28   55 1
  55   29   30 2
  56   29   31 1
  57   30   56 1
  58   31   32 3

#	End of record

