#	Name: ASD01916977
#	Creating user name:	WinNT
#	Creation time:	15. 06. 2019 20:08

#	Modifying user name:	WinNT
#	Modification time:	15. 06. 2019 20:08

#	Program:	/corina/corina34_cracker 3.40 0067  02.08.2006

@<TRIPOS>MOLECULE
ASD01916977
  65   69    0    0    0
SMALL
NO_CHARGES


@<TRIPOS>ATOM
   1 C1            -0.0168     1.3841     0.0097 C.ar    
   2 C2             0.0021    -0.0041     0.0020 C.ar    
   3 C3             1.2121    -0.6845    -0.0132 C.ar    
   4 C4             2.3993     0.0172    -0.0203 C.ar    
   5 C5             2.3835     1.4108    -0.0126 C.ar    
   6 C6             1.1673     2.0911     0.0021 C.ar    
   7 C7             3.6591     2.1687    -0.0197 C.2     
   8 N8             3.7745     3.5035    -0.0136 N.2     
   9 N9             4.8639     1.6415    -0.0274 N.2     
  10 N10            5.7730     2.7119    -0.0312 N.pl3   
  11 C11            5.0378     3.8382    -0.0220 C.2     
  12 C12            5.5783     5.2449    -0.0226 C.3     
  13 C13            7.2351     2.6198    -0.0393 C.3     
  14 C14            7.7287     2.5904    -1.4629 C.2     
  15 O15            6.9371     2.6414    -2.3803 O.2     
  16 N16            9.0498     2.5075    -1.7165 N.am    
  17 C17            9.5527     2.4775    -3.0983 C.3     
  18 C18           10.6443     3.5432    -3.2423 C.3     
  19 N19           11.6644     3.3379    -2.2053 N.3     
  20 C20           11.0997     3.5116    -0.8604 C.3     
  21 C21           10.0271     2.4507    -0.6189 C.3     
  22 C22           12.7468     4.1781    -2.4011 C.ar    
  23 C23            5.0776     5.9831    -1.2658 C.3     
  24 C24            5.6263     7.4113    -1.2664 C.3     
  25 C25            5.1462     8.1426    -0.0111 C.3     
  26 C26            5.6468     7.4045     1.2320 C.3     
  27 C27            5.0982     5.9762     1.2326 C.3     
  28 N28           12.7371     5.0170    -3.4265 N.ar    
  29 N29           13.7655     4.1281    -1.5555 N.ar    
  30 C30           14.8150     4.9176    -1.7137 C.ar    
  31 C31           14.8399     5.8037    -2.7792 C.ar    
  32 C32           13.7553     5.8335    -3.6417 C.ar    
  33 O33           -1.1660    -0.6981     0.0099 O.3     
  34 C34           -1.0735    -2.1240     0.0013 C.3     
  35 H35           -0.9596     1.9108     0.0170 H       
  36 H36            1.2237    -1.7644    -0.0191 H       
  37 H37            3.3403    -0.5126    -0.0314 H       
  38 H38            1.1520     3.1710     0.0077 H       
  39 H39            6.6678     5.2156    -0.0317 H       
  40 H40            7.6565     3.4844     0.4736 H       
  41 H41            7.5446     1.7079     0.4714 H       
  42 H42            9.9702     1.4941    -3.3147 H       
  43 H43            8.7377     2.6925    -3.7894 H       
  44 H44           11.1049     3.4615    -4.2268 H       
  45 H45           10.2033     4.5334    -3.1276 H       
  46 H46           11.8904     3.4070    -0.1176 H       
  47 H47           10.6523     4.5023    -0.7790 H       
  48 H48            9.5265     2.6455     0.3296 H       
  49 H49           10.4874     1.4630    -0.5971 H       
  50 H50            5.4196     5.4621    -2.1600 H       
  51 H51            3.9880     6.0124    -1.2567 H       
  52 H52            6.7158     7.3820    -1.2754 H       
  53 H53            5.2696     7.9372    -2.1520 H       
  54 H54            5.5371     9.1601    -0.0116 H       
  55 H55            4.0566     8.1720    -0.0021 H       
  56 H56            6.7364     7.3751     1.2230 H       
  57 H57            5.3048     7.9255     2.1263 H       
  58 H58            4.0086     6.0056     1.2417 H       
  59 H59            5.4548     5.4504     2.1182 H       
  60 H60           15.6423     4.8725    -1.0209 H       
  61 H61           15.6843     6.4595    -2.9318 H       
  62 H62           13.7434     6.5124    -4.4816 H       
  63 H63           -0.5284    -2.4581     0.8841 H       
  64 H64           -2.0754    -2.5532     0.0089 H       
  65 H65           -0.5461    -2.4485    -0.8957 H       
@<TRIPOS>BOND
   1    1    2 ar
   2    1    6 ar
   3    1   35 1
   4    2    3 ar
   5    2   33 1
   6    3    4 ar
   7    3   36 1
   8    4    5 ar
   9    4   37 1
  10    5    6 ar
  11    5    7 1
  12    6   38 1
  13    7    8 1
  14    7    9 2
  15    8   11 2
  16    9   10 1
  17   10   11 1
  18   10   13 1
  19   11   12 1
  20   12   23 1
  21   12   27 1
  22   12   39 1
  23   13   14 1
  24   13   40 1
  25   13   41 1
  26   14   15 2
  27   14   16 am
  28   16   17 1
  29   16   21 1
  30   17   18 1
  31   17   42 1
  32   17   43 1
  33   18   19 1
  34   18   44 1
  35   18   45 1
  36   19   20 1
  37   19   22 1
  38   20   21 1
  39   20   46 1
  40   20   47 1
  41   21   48 1
  42   21   49 1
  43   22   29 ar
  44   22   28 ar
  45   23   24 1
  46   23   50 1
  47   23   51 1
  48   24   25 1
  49   24   52 1
  50   24   53 1
  51   25   26 1
  52   25   54 1
  53   25   55 1
  54   26   27 1
  55   26   56 1
  56   26   57 1
  57   27   58 1
  58   27   59 1
  59   28   32 ar
  60   29   30 ar
  61   30   31 ar
  62   30   60 1
  63   31   32 ar
  64   31   61 1
  65   32   62 1
  66   33   34 1
  67   34   63 1
  68   34   64 1
  69   34   65 1

#	End of record

