#	Name: ASD08150291
#	Creating user name:	WinNT
#	Creation time:	15. 06. 2019 21:15

#	Modifying user name:	WinNT
#	Modification time:	15. 06. 2019 21:15

#	Program:	/corina/corina34_cracker 3.40 0067  02.08.2006

@<TRIPOS>MOLECULE
ASD08150291
  50   51    0    0    0
SMALL
NO_CHARGES


@<TRIPOS>ATOM
   1 C1             1.5933    -0.2781    -0.3845 C.3     
   2 C2             0.8487    -1.6102    -0.4946 C.3     
   3 C3            -0.5993    -1.4245    -0.0366 C.3     
   4 O4             0.8655    -2.0545    -1.8526 O.3     
   5 O5            -1.2623    -2.6903    -0.0284 O.3     
   6 Si6           -2.8079    -2.6262     0.4887 Si      
   7 C7            -3.3820    -4.3431     0.9493 C.ar    
   8 C8            -3.8676    -4.5920     2.2194 C.ar    
   9 C9            -4.2924    -5.8625     2.5603 C.ar    
  10 C10           -4.2320    -6.8840     1.6310 C.ar    
  11 C11           -3.7472    -6.6350     0.3606 C.ar    
  12 C12           -3.3265    -5.3635     0.0184 C.ar    
  13 C13           -2.9188    -1.5107     1.9829 C.ar    
  14 C14           -2.5966    -1.9990     3.2354 C.ar    
  15 C15           -2.6787    -1.1735     4.3412 C.ar    
  16 C16           -3.0826     0.1403     4.1944 C.ar    
  17 C17           -3.4039     0.6288     2.9418 C.ar    
  18 C18           -3.3176    -0.1954     1.8355 C.ar    
  19 C19           -3.8900    -1.9533    -0.8703 C.3     
  20 C20           -4.0637    -3.0160    -1.9573 C.3     
  21 C21           -5.2589    -1.5828    -0.2960 C.3     
  22 C22           -3.2363    -0.7086    -1.4737 C.3     
  23 N23            2.9835    -0.4564    -0.8243 N.3     
  24 H24            1.1049     0.4643    -1.0158 H       
  25 H25            1.5805     0.0608     0.6514 H       
  26 H26            1.3371    -2.3526     0.1367 H       
  27 H27           -0.6112    -1.0016     0.9680 H       
  28 H28           -1.1131    -0.7495    -0.7211 H       
  29 H29            0.4467    -1.4415    -2.4722 H       
  30 H30           -3.9148    -3.7938     2.9455 H       
  31 H31           -4.6712    -6.0570     3.5529 H       
  32 H32           -4.5632    -7.8768     1.8976 H       
  33 H33           -3.6997    -7.4332    -0.3653 H       
  34 H34           -2.9511    -5.1680    -0.9753 H       
  35 H35           -2.2810    -3.0255     3.3501 H       
  36 H36           -2.4277    -1.5552     5.3198 H       
  37 H37           -3.1475     0.7851     5.0584 H       
  38 H38           -3.7198     1.6552     2.8272 H       
  39 H39           -3.5652     0.1873     0.8563 H       
  40 H40           -4.4683    -3.9260    -1.5144 H       
  41 H41           -4.7496    -2.6470    -2.7199 H       
  42 H42           -3.0969    -3.2319    -2.4121 H       
  43 H43           -5.1491    -0.7459     0.3936 H       
  44 H44           -5.9289    -1.2994    -1.1077 H       
  45 H45           -5.6739    -2.4393     0.2354 H       
  46 H46           -2.3315    -0.9967    -2.0090 H       
  47 H47           -3.9313    -0.2321    -2.1651 H       
  48 H48           -2.9802    -0.0102    -0.6770 H       
  49 H49            3.0215    -0.8316    -1.7601 H       
  50 H50            3.4967     0.4100    -0.7610 H       
@<TRIPOS>BOND
   1    1    2 1
   2    1   23 1
   3    1   24 1
   4    1   25 1
   5    2    3 1
   6    2    4 1
   7    2   26 1
   8    3    5 1
   9    3   27 1
  10    3   28 1
  11    4   29 1
  12    5    6 1
  13    6    7 1
  14    6   13 1
  15    6   19 1
  16    7    8 ar
  17    7   12 ar
  18    8    9 ar
  19    8   30 1
  20    9   10 ar
  21    9   31 1
  22   10   11 ar
  23   10   32 1
  24   11   12 ar
  25   11   33 1
  26   12   34 1
  27   13   14 ar
  28   13   18 ar
  29   14   15 ar
  30   14   35 1
  31   15   16 ar
  32   15   36 1
  33   16   17 ar
  34   16   37 1
  35   17   18 ar
  36   17   38 1
  37   18   39 1
  38   19   20 1
  39   19   22 1
  40   19   21 1
  41   20   40 1
  42   20   41 1
  43   20   42 1
  44   21   43 1
  45   21   44 1
  46   21   45 1
  47   22   46 1
  48   22   47 1
  49   22   48 1
  50   23   49 1
  51   23   50 1

#	End of record

