#	Name: ASD01410266
#	Creating user name:	WinNT
#	Creation time:	15. 06. 2019 19:17

#	Modifying user name:	WinNT
#	Modification time:	15. 06. 2019 19:17

#	Program:	/corina/corina34_cracker 3.40 0067  02.08.2006

@<TRIPOS>MOLECULE
ASD01410266
  46   49    0    0    0
SMALL
NO_CHARGES


@<TRIPOS>ATOM
   1 C1            -0.0279     1.4254    -0.1359 C.ar    
   2 C2            -0.0089     0.0364    -0.1723 C.ar    
   3 C3            -1.1971    -0.6723    -0.1717 C.ar    
   4 C4            -2.4143     0.0185    -0.1344 C.ar    
   5 C5            -2.4323     1.4230    -0.0977 C.ar    
   6 C6            -1.2304     2.1153    -0.0931 C.ar    
   7 C7            -3.8216    -0.4091    -0.1236 C.2     
   8 C8            -4.5765     0.7943    -0.0806 C.2     
   9 O9            -3.7166     1.8403    -0.0668 O.3     
  10 O10           -4.2491    -1.5517    -0.1470 O.2     
  11 C11           -5.9353     0.8808    -0.0578 C.2     
  12 C12           -6.5837     2.1904    -0.0136 C.2     
  13 O13            1.1422     2.1138    -0.1367 O.3     
  14 O14           -1.1829    -2.0287    -0.2076 O.3     
  15 C15           -5.9656     3.4106     0.0032 C.2     
  16 C16           -8.0345     2.4577     0.0152 C.ar    
  17 C17           -8.1684     3.8546     0.0540 C.ar    
  18 N18           -6.8984     4.3944     0.0453 N.pl3   
  19 C19           -6.5997     5.8283     0.0775 C.3     
  20 C20           -9.1667     1.6473     0.0110 C.ar    
  21 C21          -10.4180     2.2231     0.0450 C.ar    
  22 C22          -10.5523     3.6035     0.0829 C.ar    
  23 C23           -9.4404     4.4171     0.0879 C.ar    
  24 C24           -6.5930     6.3081     1.5060 C.2     
  25 C25           -5.5099     6.8440     2.0119 C.2     
  26 C26           -4.2321     6.8576     1.2131 C.3     
  27 C27           -5.5418     7.4468     3.3927 C.3     
  28 H28            0.9336    -0.4901    -0.2013 H       
  29 H29           -1.2311     3.1949    -0.0647 H       
  30 H30           -6.5339    -0.0180    -0.0725 H       
  31 H31            1.4671     2.3362    -1.0199 H       
  32 H32           -1.1645    -2.4450     0.6650 H       
  33 H33           -4.8971     3.5669    -0.0141 H       
  34 H34           -5.6217     6.0058    -0.3700 H       
  35 H35           -7.3602     6.3706    -0.4844 H       
  36 H36           -9.0647     0.5725    -0.0192 H       
  37 H37          -11.2981     1.5972     0.0418 H       
  38 H38          -11.5379     4.0445     0.1086 H       
  39 H39           -9.5561     5.4904     0.1179 H       
  40 H40           -7.4811     6.2101     2.1127 H       
  41 H41           -4.2291     7.7205     0.5472 H       
  42 H42           -3.3806     6.9187     1.8908 H       
  43 H43           -4.1624     5.9434     0.6236 H       
  44 H44           -6.5431     7.3441     3.8110 H       
  45 H45           -4.8263     6.9294     4.0317 H       
  46 H46           -5.2791     8.5031     3.3341 H       
@<TRIPOS>BOND
   1    1    2 ar
   2    1   13 1
   3    1    6 ar
   4    2    3 ar
   5    2   28 1
   6    3    4 ar
   7    3   14 1
   8    4    5 ar
   9    4    7 1
  10    5    6 ar
  11    5    9 1
  12    6   29 1
  13    7    8 1
  14    7   10 2
  15    8    9 1
  16    8   11 2
  17   11   12 1
  18   11   30 1
  19   12   16 1
  20   12   15 2
  21   13   31 1
  22   14   32 1
  23   15   18 1
  24   15   33 1
  25   16   17 ar
  26   16   20 ar
  27   17   18 1
  28   17   23 ar
  29   18   19 1
  30   19   24 1
  31   19   34 1
  32   19   35 1
  33   20   21 ar
  34   20   36 1
  35   21   22 ar
  36   21   37 1
  37   22   23 ar
  38   22   38 1
  39   23   39 1
  40   24   25 2
  41   24   40 1
  42   25   26 1
  43   25   27 1
  44   26   41 1
  45   26   42 1
  46   26   43 1
  47   27   44 1
  48   27   45 1
  49   27   46 1

#	End of record

