#	Name: ASD08150271
#	Creating user name:	WinNT
#	Creation time:	15. 06. 2019 21:15

#	Modifying user name:	WinNT
#	Modification time:	15. 06. 2019 21:15

#	Program:	/corina/corina34_cracker 3.40 0067  02.08.2006

@<TRIPOS>MOLECULE
ASD08150271
  30   31    0    0    0
SMALL
NO_CHARGES


@<TRIPOS>ATOM
   1 N1            -0.0169     1.3925     0.0097 N.pl3   
   2 C2             0.0021    -0.0041     0.0020 C.ar    
   3 C3             1.2136    -0.6839    -0.0132 C.ar    
   4 C4             1.2288    -2.0646    -0.0203 C.ar    
   5 C5             0.0396    -2.7708    -0.0127 C.ar    
   6 C6            -1.1679    -2.0974     0.0024 C.ar    
   7 C7            -1.1902    -0.7164     0.0154 C.ar    
   8 C8             2.5425    -2.8028    -0.0368 C.3     
   9 N9             2.9828    -3.0496     1.3428 N.3     
  10 C10            4.1305    -3.9679     1.3731 C.3     
  11 C11            4.5933    -4.1500     2.8211 C.3     
  12 O12            3.4989    -4.6248     3.6099 O.3     
  13 C13            2.3642    -3.7544     3.6034 C.3     
  14 C14            1.8788    -3.5683     2.1634 C.3     
  15 H15            0.8165     1.8889     0.0044 H       
  16 H16           -0.8634     1.8661     0.0163 H       
  17 H17            2.1426    -0.1330    -0.0198 H       
  18 H18            0.0543    -3.8507    -0.0190 H       
  19 H19           -2.0947    -2.6519     0.0083 H       
  20 H20           -2.1337    -0.1911     0.0317 H       
  21 H21            2.4182    -3.7541    -0.5542 H       
  22 H22            3.2902    -2.2023    -0.5549 H       
  23 H23            3.8354    -4.9330     0.9612 H       
  24 H24            4.9451    -3.5521     0.7802 H       
  25 H25            5.4073    -4.8741     2.8547 H       
  26 H26            4.9388    -3.1945     3.2157 H       
  27 H27            1.5661    -4.1924     4.2028 H       
  28 H28            2.6448    -2.7873     4.0207 H       
  29 H29            1.0498    -2.8608     2.1473 H       
  30 H30            1.5477    -4.5270     1.7641 H       
@<TRIPOS>BOND
   1    1    2 1
   2    1   15 1
   3    1   16 1
   4    2    3 ar
   5    2    7 ar
   6    3    4 ar
   7    3   17 1
   8    4    5 ar
   9    4    8 1
  10    5    6 ar
  11    5   18 1
  12    6    7 ar
  13    6   19 1
  14    7   20 1
  15    8    9 1
  16    8   21 1
  17    8   22 1
  18    9   10 1
  19    9   14 1
  20   10   11 1
  21   10   23 1
  22   10   24 1
  23   11   12 1
  24   11   25 1
  25   11   26 1
  26   12   13 1
  27   13   14 1
  28   13   27 1
  29   13   28 1
  30   14   29 1
  31   14   30 1

#	End of record

