#	Name: ASD04880182
#	Creating user name:	WinNT
#	Creation time:	15. 06. 2019 20:53

#	Modifying user name:	WinNT
#	Modification time:	15. 06. 2019 20:53

#	Program:	/corina/corina34_cracker 3.40 0067  02.08.2006

@<TRIPOS>MOLECULE
ASD04880182
  44   46    0    0    0
SMALL
NO_CHARGES


@<TRIPOS>ATOM
   1 C1            -0.0184     1.5028     0.0103 C.2     
   2 C2             0.0021    -0.0041     0.0020 C.3     
   3 O3             1.0239     2.1236     0.0037 O.2     
   4 N4            -1.1946     2.1607     0.0195 N.am    
   5 N5            -2.4552     1.5672     0.0227 N.2     
   6 C6            -3.4323     2.4069     0.0325 C.2     
   7 C7            -2.8865     3.8169     0.0376 C.3     
   8 C8            -1.3572     3.6232     0.0341 C.3     
   9 C9            -4.8622     2.0481     0.0375 C.ar    
  10 C10           -5.2474     0.7050     0.0320 C.ar    
  11 C11           -6.5895     0.3743     0.0372 C.ar    
  12 C12           -7.5546     1.3790     0.0475 C.ar    
  13 C13           -7.1726     2.7127     0.0530 C.ar    
  14 C14           -5.8356     3.0503     0.0537 C.ar    
  15 O15           -8.8740     1.0516     0.0517 O.3     
  16 C16           -9.8102     2.1312     0.0623 C.3     
  17 O17           -6.9679    -0.9320     0.0319 O.3     
  18 C18           -5.9254    -1.9093     0.0209 C.3     
  19 C19            1.4547    -0.5114    -0.0146 C.3     
  20 C20            1.6445    -1.3464     1.2686 C.3     
  21 C21            0.2106    -1.7941     1.6461 C.3     
  22 C22           -0.6401    -0.5484     1.2947 C.3     
  23 H23           -0.5346    -0.3797    -0.8692 H       
  24 H24           -3.2091     4.3550    -0.8537 H       
  25 H25           -3.1997     4.3449     0.9384 H       
  26 H26           -0.9128     4.0496     0.9334 H       
  27 H27           -0.9181     4.0669    -0.8594 H       
  28 H28           -4.4982    -0.0729     0.0234 H       
  29 H29           -7.9241     3.4883     0.0609 H       
  30 H30           -5.5410     4.0893     0.0624 H       
  31 H31          -10.8246     1.7323     0.0647 H       
  32 H32           -9.6559     2.7371     0.9551 H       
  33 H33           -9.6642     2.7474    -0.8249 H       
  34 H34           -5.3136    -1.7780    -0.8716 H       
  35 H35           -5.3042    -1.7879     0.9084 H       
  36 H36           -6.3632    -2.9075     0.0176 H       
  37 H37            1.6227    -1.1340    -0.8934 H       
  38 H38            2.1448     0.3322    -0.0166 H       
  39 H39            2.2750    -2.2131     1.0701 H       
  40 H40            2.0743    -0.7345     2.0618 H       
  41 H41           -0.0960    -2.6524     1.0482 H       
  42 H42            0.1440    -2.0198     2.7104 H       
  43 H43           -0.5793     0.1923     2.0921 H       
  44 H44           -1.6769    -0.8327     1.1152 H       
@<TRIPOS>BOND
   1    1    2 1
   2    1    3 2
   3    1    4 am
   4    2   19 1
   5    2   22 1
   6    2   23 1
   7    4    5 1
   8    4    8 1
   9    5    6 2
  10    6    7 1
  11    6    9 1
  12    7    8 1
  13    7   24 1
  14    7   25 1
  15    8   26 1
  16    8   27 1
  17    9   10 ar
  18    9   14 ar
  19   10   11 ar
  20   10   28 1
  21   11   12 ar
  22   11   17 1
  23   12   13 ar
  24   12   15 1
  25   13   14 ar
  26   13   29 1
  27   14   30 1
  28   15   16 1
  29   16   31 1
  30   16   32 1
  31   16   33 1
  32   17   18 1
  33   18   34 1
  34   18   35 1
  35   18   36 1
  36   19   20 1
  37   19   37 1
  38   19   38 1
  39   20   21 1
  40   20   39 1
  41   20   40 1
  42   21   22 1
  43   21   41 1
  44   21   42 1
  45   22   43 1
  46   22   44 1

#	End of record

