#	Name: ASD01820009
#	Creating user name:	WinNT
#	Creation time:	15. 06. 2019 19:36

#	Modifying user name:	WinNT
#	Modification time:	15. 06. 2019 19:36

#	Program:	/corina/corina34_cracker 3.40 0067  02.08.2006

@<TRIPOS>MOLECULE
ASD01820009
  90   93    0    0    0
SMALL
NO_CHARGES


@<TRIPOS>ATOM
   1 N1             0.7802     0.6685    -1.4271 N.am    
   2 C2             0.7471    -0.7790    -1.2036 C.3     
   3 C3            -0.0582    -1.0814     0.0617 C.3     
   4 C4            -0.0928    -2.5931     0.2951 C.3     
   5 N5            -0.3480    -2.8634     1.7163 N.4     
   6 C6            -0.5613    -4.3039     1.9101 C.3     
   7 C7            -0.8271    -4.5855     3.3903 C.3     
   8 C8            -1.0492    -6.0857     3.5921 C.3     
   9 C9            -1.3151    -6.3673     5.0723 C.3     
  10 C10           -1.5372    -7.8676     5.2742 C.3     
  11 C11           -1.8030    -8.1492     6.7544 C.3     
  12 N12           -2.0162    -9.5896     6.9482 N.4     
  13 C13            0.8069    -2.4279     2.5127 C.3     
  14 C14           -1.5450    -2.1289     2.1471 C.3     
  15 C15           -3.1712   -10.0252     6.1517 C.3     
  16 C16           -0.8193   -10.3242     6.5173 C.3     
  17 C17           -2.2715    -9.8600     8.3693 C.3     
  18 C18           -2.4852   -11.3034     8.5636 C.1     
  19 C19           -2.6556   -12.4546     8.7185 C.1     
  20 C20           -2.8692   -13.8980     8.9127 C.3     
  21 O21           -3.1176   -14.1610    10.2952 O.3     
  22 C22           -3.3357   -15.4487    10.6456 C.2     
  23 C23           -3.6235   -15.9495    12.0481 C.3     
  24 N24           -3.3397   -16.4486     9.8506 N.2     
  25 O25           -3.5898   -17.6772    10.5039 O.3     
  26 C26           -4.1679   -17.3749    11.7893 C.3     
  27 C27            1.7800     1.3862    -0.8806 C.2     
  28 C28           -0.1875     2.6807    -2.4228 C.ar    
  29 C29           -0.1872     1.2312    -2.1759 C.2     
  30 C30            0.8440     3.4653    -1.8583 C.ar    
  31 C31            1.8470     2.8411    -1.0821 C.ar    
  32 C32            2.8585     3.6184    -0.5379 C.ar    
  33 C33            2.8789     4.9910    -0.7570 C.ar    
  34 C34            1.9183     5.6106    -1.5035 C.ar    
  35 C35            0.8754     4.8588    -2.0726 C.ar    
  36 C36           -0.1335     5.4492    -2.8536 C.ar    
  37 C37           -1.1226     4.6762    -3.3904 C.ar    
  38 C38           -1.1648     3.3018    -3.1860 C.ar    
  39 O39            2.6321     0.8279    -0.2164 O.2     
  40 O40           -1.0652     0.5367    -2.6508 O.2     
  41 C41            0.5993    -0.3951     1.2608 C.3     
  42 C42           -1.4862    -0.5583    -0.1054 C.3     
  43 H43            0.2787    -1.2679    -2.0578 H       
  44 H44            1.7645    -1.1516    -1.0845 H       
  45 H45           -0.8862    -3.0356    -0.3072 H       
  46 H46            0.8654    -3.0269     0.0091 H       
  47 H47           -1.4182    -4.6271     1.3191 H       
  48 H48            0.3269    -4.8489     1.5904 H       
  49 H49            0.0298    -4.2623     3.9812 H       
  50 H50           -1.7153    -4.0404     3.7100 H       
  51 H51           -1.9062    -6.4089     3.0012 H       
  52 H52           -0.1610    -6.6308     3.2724 H       
  53 H53           -0.4581    -6.0441     5.6633 H       
  54 H54           -2.2032    -5.8223     5.3920 H       
  55 H55           -2.3941    -8.1908     4.6832 H       
  56 H56           -0.6490    -8.4126     4.9545 H       
  57 H57           -0.9461    -7.8260     7.3453 H       
  58 H58           -2.6912    -7.6042     7.0741 H       
  59 H59            0.6709    -1.3885     2.8116 H       
  60 H60            0.8921    -3.0533     3.4014 H       
  61 H61            1.7146    -2.5186     1.9162 H       
  62 H62           -2.2758    -2.1187     1.3384 H       
  63 H63           -1.9765    -2.6178     3.0206 H       
  64 H64           -1.2709    -1.1052     2.4021 H       
  65 H65           -2.9818    -9.8246     5.0972 H       
  66 H66           -3.3294   -11.0940     6.2955 H       
  67 H67           -4.0594    -9.4802     6.4714 H       
  68 H68            0.0377   -10.0010     7.1083 H       
  69 H69           -0.9775   -11.3930     6.6611 H       
  70 H70           -0.6299   -10.1236     5.4628 H       
  71 H71           -1.4145    -9.5368     8.9603 H       
  72 H72           -3.1597    -9.3150     8.6891 H       
  73 H73           -3.7262   -14.2212     8.3217 H       
  74 H74           -1.9811   -14.4430     8.5930 H       
  75 H75           -2.7099   -15.9858    12.6414 H       
  76 H76           -4.3772   -15.3295    12.5335 H       
  77 H77           -3.8174   -18.0714    12.5510 H       
  78 H78           -5.2565   -17.3736    11.7346 H       
  79 H79            3.6318     3.1563     0.0578 H       
  80 H80            3.6737     5.5816    -0.3259 H       
  81 H81            1.9594     6.6789    -1.6568 H       
  82 H82           -0.1264     6.5149    -3.0289 H       
  83 H83           -1.8911     5.1438    -3.9879 H       
  84 H84           -1.9601     2.7163    -3.6232 H       
  85 H85            0.7896     0.6510     1.0213 H       
  86 H86           -0.0648    -0.4555     2.1230 H       
  87 H87            1.5414    -0.8921     1.4923 H       
  88 H88           -2.0226    -1.1869    -0.8162 H       
  89 H89           -1.9967    -0.5815     0.8574 H       
  90 H90           -1.4568     0.4662    -0.4765 H       
@<TRIPOS>BOND
   1    1    2 1
   2    1   27 am
   3    1   29 am
   4    2    3 1
   5    2   43 1
   6    2   44 1
   7    3    4 1
   8    3   41 1
   9    3   42 1
  10    4    5 1
  11    4   45 1
  12    4   46 1
  13    5    6 1
  14    5   13 1
  15    5   14 1
  16    6    7 1
  17    6   47 1
  18    6   48 1
  19    7    8 1
  20    7   49 1
  21    7   50 1
  22    8    9 1
  23    8   51 1
  24    8   52 1
  25    9   10 1
  26    9   53 1
  27    9   54 1
  28   10   11 1
  29   10   55 1
  30   10   56 1
  31   11   12 1
  32   11   57 1
  33   11   58 1
  34   12   15 1
  35   12   16 1
  36   12   17 1
  37   13   59 1
  38   13   60 1
  39   13   61 1
  40   14   62 1
  41   14   63 1
  42   14   64 1
  43   15   65 1
  44   15   66 1
  45   15   67 1
  46   16   68 1
  47   16   69 1
  48   16   70 1
  49   17   18 1
  50   17   71 1
  51   17   72 1
  52   18   19 3
  53   19   20 1
  54   20   21 1
  55   20   73 1
  56   20   74 1
  57   21   22 1
  58   22   24 2
  59   22   23 1
  60   23   26 1
  61   23   75 1
  62   23   76 1
  63   24   25 1
  64   25   26 1
  65   26   77 1
  66   26   78 1
  67   27   31 1
  68   27   39 2
  69   28   29 1
  70   28   30 ar
  71   28   38 ar
  72   29   40 2
  73   30   35 ar
  74   30   31 ar
  75   31   32 ar
  76   32   33 ar
  77   32   79 1
  78   33   34 ar
  79   33   80 1
  80   34   35 ar
  81   34   81 1
  82   35   36 ar
  83   36   37 ar
  84   36   82 1
  85   37   38 ar
  86   37   83 1
  87   38   84 1
  88   41   85 1
  89   41   86 1
  90   41   87 1
  91   42   88 1
  92   42   89 1
  93   42   90 1

#	End of record

