#	Name: ASD07930644
#	Creating user name:	WinNT
#	Creation time:	15. 06. 2019 21:12

#	Modifying user name:	WinNT
#	Modification time:	15. 06. 2019 21:12

#	Program:	/corina/corina34_cracker 3.40 0067  02.08.2006

@<TRIPOS>MOLECULE
ASD07930644
  49   51    0    0    0
SMALL
NO_CHARGES


@<TRIPOS>ATOM
   1 C1             1.3695     0.7531    -1.5467 C.3     
   2 N2             2.3132    -2.0768    -1.4377 N.2     
   3 N3             0.0353    -2.5818    -1.3054 N.pl3   
   4 C4            -0.8997    -2.7425    -0.1869 C.3     
   5 C5            -1.5451    -1.3868     0.1320 C.3     
   6 S6            -0.2177    -0.1884     0.4729 S.o2    
   7 N7             0.8029    -0.3912    -0.8285 N.am    
   8 C8             1.0893    -1.6975    -1.1988 C.2     
   9 C9            -0.1434    -3.2501     1.0424 C.3     
  10 C10           -1.9706    -3.7332    -0.5646 C.ar    
  11 C11           -1.6887    -4.7470    -1.4616 C.ar    
  12 C12           -2.6778    -5.6609    -1.8095 C.ar    
  13 C13           -3.9454    -5.5528    -1.2553 C.ar    
  14 C14           -4.2228    -4.5374    -0.3587 C.ar    
  15 C15           -3.2348    -3.6312    -0.0088 C.ar    
  16 O16           -0.6964     1.1436     0.3476 O.2     
  17 O17            0.5513    -0.5939     1.5969 O.2     
  18 N18           -2.3949    -6.6884    -2.7183 N.am    
  19 C19           -3.3910    -7.2510    -3.4309 C.2     
  20 O20           -4.5186    -6.8019    -3.3589 O.2     
  21 C21           -3.1128    -8.4132    -4.2994 C.ar    
  22 N22           -1.8783    -8.8988    -4.3734 N.ar    
  23 F23           -3.5083    -2.6403     0.8678 F       
  24 C24           -1.5866    -9.9303    -5.1321 C.ar    
  25 C25           -2.5693   -10.5582    -5.8941 C.ar    
  26 C26           -3.8753   -10.0819    -5.8461 C.ar    
  27 C27           -4.1519    -8.9951    -5.0311 C.ar    
  28 O28           -2.2557   -11.6229    -6.6752 O.3     
  29 F29           -0.4538    -4.8495    -1.9999 F       
  30 C30           -0.8925   -12.0518    -6.6706 C.3     
  31 H31           -0.2545   -11.2379    -7.0149 H       
  32 H32           -0.6045   -12.3361    -5.6585 H       
  33 H33           -0.7789   -12.9085    -7.3349 H       
  34 F34           -5.4060    -8.4988    -4.9533 F       
  35 Cl35          -5.8087    -4.4017     0.3343 Cl      
  36 H36            2.3185     1.0347    -1.0904 H       
  37 H37            1.5340     0.4823    -2.5896 H       
  38 H38            0.6776     1.5937    -1.4943 H       
  39 H39            3.0421    -1.4418    -1.3576 H       
  40 H40           -0.0847    -3.0991    -2.1171 H       
  41 H41           -2.1337    -1.0503    -0.7215 H       
  42 H42           -2.1875    -1.4825     1.0073 H       
  43 H43            0.6914    -2.5827     1.2566 H       
  44 H44           -0.8173    -3.2754     1.8988 H       
  45 H45            0.2345    -4.2537     0.8477 H       
  46 H46           -4.7149    -6.2612    -1.5244 H       
  47 H47           -1.4821    -6.9952    -2.8348 H       
  48 H48           -0.5711   -10.2964    -5.1660 H       
  49 H49           -4.6561   -10.5501    -6.4271 H       
@<TRIPOS>BOND
   1    1    7 1
   2    1   36 1
   3    1   37 1
   4    1   38 1
   5    2    8 2
   6    2   39 1
   7    3    4 1
   8    3    8 1
   9    3   40 1
  10    4    5 1
  11    4    9 1
  12    4   10 1
  13    5    6 1
  14    5   41 1
  15    5   42 1
  16    6    7 am
  17    6   16 2
  18    6   17 2
  19    7    8 1
  20    9   43 1
  21    9   44 1
  22    9   45 1
  23   10   11 ar
  24   10   15 ar
  25   11   12 ar
  26   11   29 1
  27   12   13 ar
  28   12   18 1
  29   13   14 ar
  30   13   46 1
  31   14   15 ar
  32   14   35 1
  33   15   23 1
  34   18   19 am
  35   18   47 1
  36   19   20 2
  37   19   21 1
  38   21   22 ar
  39   21   27 ar
  40   22   24 ar
  41   24   25 ar
  42   24   48 1
  43   25   26 ar
  44   25   28 1
  45   26   27 ar
  46   26   49 1
  47   27   34 1
  48   28   30 1
  49   30   31 1
  50   30   32 1
  51   30   33 1

#	End of record

