#	Name: ASD03090788
#	Creating user name:	WinNT
#	Creation time:	15. 06. 2019 20:29

#	Modifying user name:	WinNT
#	Modification time:	15. 06. 2019 20:29

#	Program:	/corina/corina34_cracker 3.40 0067  02.08.2006

@<TRIPOS>MOLECULE
ASD03090788
  35   37    0    0    0
SMALL
NO_CHARGES


@<TRIPOS>ATOM
   1 O1             0.0021    -0.0041     0.0020 O.2     
   2 C2            -0.0144     1.2114     0.0087 C.2     
   3 C3             1.2552     1.9677     0.0006 C.ar    
   4 C4             2.4752     1.2889    -0.0147 C.ar    
   5 C5             3.6566     2.0000    -0.0221 C.ar    
   6 C6             3.6346     3.3849    -0.0139 C.ar    
   7 C7             2.4274     4.0639     0.0017 C.ar    
   8 C8             1.2394     3.3637     0.0025 C.ar    
   9 Cl9            5.1261     4.2733    -0.0228 Cl      
  10 N10           -1.1906     1.8694     0.0179 N.am    
  11 C11           -2.4493     1.1197     0.0198 C.3     
  12 C12           -2.8190     0.7412     1.4569 C.3     
  13 N13           -4.1183     1.3358     1.7984 N.3     
  14 C14           -5.1818     0.8167     0.9273 C.3     
  15 C15           -4.8791     1.1968    -0.5248 C.3     
  16 C16           -3.5675     1.9911    -0.5659 C.3     
  17 C17           -3.7242     3.2401     0.3107 C.3     
  18 C18           -4.0594     2.8028     1.7394 C.3     
  19 H19            2.4936     0.2091    -0.0203 H       
  20 H20            4.6009     1.4761    -0.0339 H       
  21 H21            2.4165     5.1438     0.0084 H       
  22 H22            0.2987     3.8942     0.0147 H       
  23 H23           -1.2038     2.8393     0.0232 H       
  24 H24           -2.3368     0.2156    -0.5786 H       
  25 H25           -2.8817    -0.3436     1.5426 H       
  26 H26           -2.0566     1.1168     2.1394 H       
  27 H27           -5.2280    -0.2686     1.0170 H       
  28 H28           -6.1379     1.2476     1.2243 H       
  29 H29           -4.7775     0.2929    -1.1254 H       
  30 H30           -5.6898     1.8099    -0.9184 H       
  31 H31           -3.3285     2.2673    -1.5929 H       
  32 H32           -2.7923     3.8054     0.3109 H       
  33 H33           -4.5303     3.8614    -0.0797 H       
  34 H34           -5.0247     3.2175     2.0296 H       
  35 H35           -3.2886     3.1636     2.4204 H       
@<TRIPOS>BOND
   1    1    2 2
   2    2    3 1
   3    2   10 am
   4    3    4 ar
   5    3    8 ar
   6    4    5 ar
   7    4   19 1
   8    5    6 ar
   9    5   20 1
  10    6    7 ar
  11    6    9 1
  12    7    8 ar
  13    7   21 1
  14    8   22 1
  15   10   11 1
  16   10   23 1
  17   11   12 1
  18   11   16 1
  19   11   24 1
  20   12   13 1
  21   12   25 1
  22   12   26 1
  23   13   14 1
  24   13   18 1
  25   14   15 1
  26   14   27 1
  27   14   28 1
  28   15   16 1
  29   15   29 1
  30   15   30 1
  31   16   17 1
  32   16   31 1
  33   17   18 1
  34   17   32 1
  35   17   33 1
  36   18   34 1
  37   18   35 1

#	End of record

