#	Name: ASD04910294
#	Creating user name:	WinNT
#	Creation time:	15. 06. 2019 20:55

#	Modifying user name:	WinNT
#	Modification time:	15. 06. 2019 20:55

#	Program:	/corina/corina34_cracker 3.40 0067  02.08.2006

@<TRIPOS>MOLECULE
ASD04910294
  60   62    0    0    0
SMALL
NO_CHARGES


@<TRIPOS>ATOM
   1 C1            -0.2693     1.4347     0.2402 C.2     
   2 C2            -0.2089    -0.0706     0.2041 C.3     
   3 C3             1.2519    -0.5211     0.1424 C.3     
   4 O4             0.7514     2.0810     0.2188 O.2     
   5 O5            -1.4572     2.0577     0.2906 O.3     
   6 C6             2.5031    -2.6100     0.0512 C.2     
   7 C7             2.5624    -4.0868     0.0158 C.ar    
   8 C8             3.7957    -4.7377    -0.0423 C.ar    
   9 C9             3.8440    -6.1160    -0.0746 C.ar    
  10 C10            2.6733    -6.8530    -0.0499 C.ar    
  11 C11            1.4475    -6.2141     0.0077 C.ar    
  12 C12            1.3854    -4.8364     0.0463 C.ar    
  13 O13            3.5300    -1.9599     0.0297 O.2     
  14 N14            1.3106    -1.9845     0.1074 N.am    
  15 C15            2.7337    -8.3584    -0.0865 C.3     
  16 C16            2.5544    -8.9105     1.3291 C.3     
  17 C17            2.7396   -10.4291     1.3115 C.3     
  18 C18            2.5602   -10.9812     2.7271 C.3     
  19 O19            1.6915    -8.8566    -0.9276 O.3     
  20 C20            1.9543    -9.9903    -1.6304 C.ar    
  21 C21            3.2167   -10.5632    -1.5753 C.ar    
  22 C22            3.4844   -11.7144    -2.2892 C.ar    
  23 C23            2.4898   -12.2989    -3.0618 C.ar    
  24 C24            1.2265   -11.7253    -3.1161 C.ar    
  25 C25            0.9585   -10.5771    -2.3978 C.ar    
  26 N26            2.7612   -13.4677    -3.7873 N.pl3   
  27 C27            1.9982   -14.6144    -3.7790 C.2     
  28 C28            2.6049   -15.5233    -4.6206 C.2     
  29 C29            3.7491   -14.9057    -5.1386 C.2     
  30 C30            3.8181   -13.6564    -4.6211 C.2     
  31 C31            2.1261   -16.9195    -4.9247 C.3     
  32 C32            0.7944   -14.8247    -3.0325 C.1     
  33 N33           -0.1606   -14.9915    -2.4403 N.1     
  34 H34           -0.6761    -0.4746     1.1023 H       
  35 H35           -0.7389    -0.4345    -0.6761 H       
  36 H36            1.7191    -0.1171    -0.7557 H       
  37 H37            1.7818    -0.1572     1.0227 H       
  38 H38           -1.4453     3.0244     0.3122 H       
  39 H39            4.7102    -4.1635    -0.0624 H       
  40 H40            4.7977    -6.6208    -0.1197 H       
  41 H41            0.5373    -6.7952     0.0268 H       
  42 H42            0.4280    -4.3390     0.0958 H       
  43 H43            0.4912    -2.5033     0.1246 H       
  44 H44            3.7001    -8.6738    -0.4798 H       
  45 H45            3.2953    -8.4617     1.9907 H       
  46 H46            1.5537    -8.6707     1.6886 H       
  47 H47            1.9986   -10.8779     0.6499 H       
  48 H48            3.7403   -10.6690     0.9520 H       
  49 H49            3.3012   -10.5325     3.3887 H       
  50 H50            1.5596   -10.7414     3.0866 H       
  51 H51            2.6922   -12.0632     2.7146 H       
  52 H52            3.9903   -10.1085    -0.9743 H       
  53 H53            4.4673   -12.1599    -2.2468 H       
  54 H54            0.4525   -12.1795    -3.7170 H       
  55 H55           -0.0253   -10.1331    -2.4367 H       
  56 H56            4.4505   -15.3461    -5.8317 H       
  57 H57            4.5883   -12.9298    -4.8338 H       
  58 H58            1.4584   -16.8951    -5.7859 H       
  59 H59            2.9820   -17.5569    -5.1465 H       
  60 H60            1.5915   -17.3163    -4.0617 H       
@<TRIPOS>BOND
   1    1    2 1
   2    1    4 2
   3    1    5 1
   4    2    3 1
   5    2   34 1
   6    2   35 1
   7    3   14 1
   8    3   36 1
   9    3   37 1
  10    5   38 1
  11    6    7 1
  12    6   13 2
  13    6   14 am
  14    7    8 ar
  15    7   12 ar
  16    8    9 ar
  17    8   39 1
  18    9   10 ar
  19    9   40 1
  20   10   11 ar
  21   10   15 1
  22   11   12 ar
  23   11   41 1
  24   12   42 1
  25   14   43 1
  26   15   16 1
  27   15   19 1
  28   15   44 1
  29   16   17 1
  30   16   45 1
  31   16   46 1
  32   17   18 1
  33   17   47 1
  34   17   48 1
  35   18   49 1
  36   18   50 1
  37   18   51 1
  38   19   20 1
  39   20   21 ar
  40   20   25 ar
  41   21   22 ar
  42   21   52 1
  43   22   23 ar
  44   22   53 1
  45   23   24 ar
  46   23   26 1
  47   24   25 ar
  48   24   54 1
  49   25   55 1
  50   26   27 1
  51   26   30 1
  52   27   28 2
  53   27   32 1
  54   28   29 1
  55   28   31 1
  56   29   30 2
  57   29   56 1
  58   30   57 1
  59   31   58 1
  60   31   59 1
  61   31   60 1
  62   32   33 3

#	End of record

