#	Name: ASD00170149
#	Creating user name:	WinNT
#	Creation time:	15. 06. 2019 18:31

#	Modifying user name:	WinNT
#	Modification time:	15. 06. 2019 18:31

#	Program:	/corina/corina34_cracker 3.40 0067  02.08.2006

@<TRIPOS>MOLECULE
ASD00170149
  23   24    0    0    0
SMALL
NO_CHARGES


@<TRIPOS>ATOM
   1 C1             0.0040     1.3223     0.1969 C.2     
   2 C2             0.0142     0.0003     0.1256 C.2     
   3 C3             1.3488    -0.5570     0.0602 C.2     
   4 C4             2.3285     0.4081     0.0861 C.2     
   5 S5             1.6373     1.9628     0.1880 S.3     
   6 N6             3.6840     0.1529     0.0365 N.pl3   
   7 C7             1.6254    -1.9910    -0.0242 C.2     
   8 C8             0.5196    -2.9652     0.0922 C.ar    
   9 O9             2.7666    -2.3823    -0.1903 O.2     
  10 C10            0.5799    -4.1790    -0.5954 C.ar    
  11 C11           -0.4537    -5.0840    -0.4830 C.ar    
  12 C12           -1.5519    -4.7909     0.3110 C.ar    
  13 C13           -1.6169    -3.5871     0.9959 C.ar    
  14 C14           -0.5863    -2.6772     0.8947 C.ar    
  15 F15           -2.5625    -5.6811     0.4174 F       
  16 H16           -0.8901     1.9258     0.2488 H       
  17 H17           -0.8825    -0.6015     0.1170 H       
  18 H18            4.0037    -0.7611    -0.0211 H       
  19 H19            4.3170     0.8876     0.0592 H       
  20 H20            1.4347    -4.4082    -1.2144 H       
  21 H21           -0.4083    -6.0230    -1.0147 H       
  22 H22           -2.4745    -3.3636     1.6131 H       
  23 H23           -0.6378    -1.7398     1.4286 H       
@<TRIPOS>BOND
   1    1    2 2
   2    1    5 1
   3    1   16 1
   4    2    3 1
   5    2   17 1
   6    3    4 2
   7    3    7 1
   8    4    5 1
   9    4    6 1
  10    6   18 1
  11    6   19 1
  12    7    8 1
  13    7    9 2
  14    8   10 ar
  15    8   14 ar
  16   10   11 ar
  17   10   20 1
  18   11   12 ar
  19   11   21 1
  20   12   13 ar
  21   12   15 1
  22   13   14 ar
  23   13   22 1
  24   14   23 1

#	End of record

