#	Name: ASD00960215
#	Creating user name:	WinNT
#	Creation time:	15. 06. 2019 18:53

#	Modifying user name:	WinNT
#	Modification time:	15. 06. 2019 18:53

#	Program:	/corina/corina34_cracker 3.40 0067  02.08.2006

@<TRIPOS>MOLECULE
ASD00960215
  32   34    0    0    0
SMALL
NO_CHARGES


@<TRIPOS>ATOM
   1 C1            -0.0168     1.3883     0.0097 C.2     
   2 C2             0.0021    -0.0041     0.0020 C.2     
   3 N3             1.2752     1.8332    -0.0003 N.pl3   
   4 C4             2.1096     0.7445    -0.0141 C.2     
   5 C5             1.3263    -0.4039    -0.0128 C.2     
   6 N6             1.8456     3.1137     0.0011 N.2     
   7 C7             3.1453     3.2509    -0.0105 C.2     
   8 N8             3.9663     2.2053    -0.0239 N.2     
   9 C9             3.5077     0.9656    -0.0258 C.2     
  10 N10            4.3829    -0.1021    -0.0395 N.pl3   
  11 I11            2.0238    -2.3792    -0.0300 I       
  12 C12           -1.2121     2.2286     0.0201 C.2     
  13 O13           -2.3158     1.7165     0.0232 O.2     
  14 O14           -1.0918     3.5727     0.0263 O.3     
  15 C15           -2.3022     4.3323     0.0364 C.3     
  16 C16           -1.9724     5.8028     0.0422 C.ar    
  17 C17           -1.8274     6.4833    -1.1523 C.ar    
  18 C18           -1.5248     7.8321    -1.1470 C.ar    
  19 C19           -1.3678     8.5005     0.0528 C.ar    
  20 C20           -1.5138     7.8202     1.2473 C.ar    
  21 C21           -1.8206     6.4723     1.2420 C.ar    
  22 H22           -0.8605    -0.6539     0.0071 H       
  23 H23            3.5658     4.2457    -0.0096 H       
  24 H24            5.3400     0.0553    -0.0478 H       
  25 H25            4.0407    -1.0098    -0.0408 H       
  26 H26           -2.8877     4.0947    -0.8518 H       
  27 H27           -2.8785     4.0857     0.9282 H       
  28 H28           -1.9501     5.9610    -2.0896 H       
  29 H29           -1.4108     8.3636    -2.0802 H       
  30 H30           -1.1308     9.5542     0.0569 H       
  31 H31           -1.3908     8.3424     2.1846 H       
  32 H32           -1.9383     5.9417     2.1752 H       
@<TRIPOS>BOND
   1    1    2 2
   2    1    3 1
   3    1   12 1
   4    2    5 1
   5    2   22 1
   6    3    4 1
   7    3    6 1
   8    4    5 2
   9    4    9 1
  10    5   11 1
  11    6    7 2
  12    7    8 1
  13    7   23 1
  14    8    9 2
  15    9   10 1
  16   10   24 1
  17   10   25 1
  18   12   13 2
  19   12   14 1
  20   14   15 1
  21   15   16 1
  22   15   26 1
  23   15   27 1
  24   16   17 ar
  25   16   21 ar
  26   17   18 ar
  27   17   28 1
  28   18   19 ar
  29   18   29 1
  30   19   20 ar
  31   19   30 1
  32   20   21 ar
  33   20   31 1
  34   21   32 1

#	End of record

