#	Name: ASD01190161
#	Creating user name:	WinNT
#	Creation time:	15. 06. 2019 19:07

#	Modifying user name:	WinNT
#	Modification time:	15. 06. 2019 19:07

#	Program:	/corina/corina34_cracker 3.40 0067  02.08.2006

@<TRIPOS>MOLECULE
ASD01190161
  46   49    0    0    0
SMALL
NO_CHARGES


@<TRIPOS>ATOM
   1 N1            -0.0178     1.4648     0.0101 N.3     
   2 C2             0.0021    -0.0041     0.0020 C.3     
   3 C3             0.1484    -0.5200     1.4349 C.3     
   4 N4            -4.6569    -2.1181    -2.3291 N.pl3   
   5 N5            -4.0782    -3.1603    -3.0609 N.2     
   6 C6            -2.7877    -3.1707    -2.8813 C.2     
   7 C7            -2.4538    -2.0760    -1.9757 C.ar    
   8 C8            -1.2587    -1.5975    -1.4272 C.ar    
   9 C9            -1.2844    -0.5207    -0.5890 C.ar    
  10 C10           -2.4854     0.1036    -0.2750 C.ar    
  11 C11           -3.6651    -0.3456    -0.7977 C.ar    
  12 C12           -3.6700    -1.4417    -1.6560 C.ar    
  13 C13           -6.0231    -1.8104    -2.2937 C.ar    
  14 C14           -6.8041    -1.9818    -3.4290 C.ar    
  15 C15           -8.1508    -1.6778    -3.3920 C.ar    
  16 C16           -8.7223    -1.2023    -2.2236 C.ar    
  17 C17           -7.9452    -1.0306    -1.0903 C.ar    
  18 C18           -6.5994    -1.3389    -1.1215 C.ar    
  19 F19          -10.0398    -0.9051    -2.1896 F       
  20 F20           -0.9310    -0.0725     2.2042 F       
  21 F21            0.1674    -1.9189     1.4273 F       
  22 F22            1.3427    -0.0405     1.9836 F       
  23 C23            1.3463     2.0098    -0.0000 C.3     
  24 C24            1.2856     3.5156     0.0087 C.ar    
  25 C25            1.2693     4.1998     1.2097 C.ar    
  26 C26            1.2136     5.5810     1.2177 C.ar    
  27 C27            1.1748     6.2780     0.0246 C.ar    
  28 C28            1.1921     5.5939    -1.1765 C.ar    
  29 C29            1.2521     4.2128    -1.1845 C.ar    
  30 H30           -0.5563     1.8234    -0.7642 H       
  31 H31            0.8431    -0.3527    -0.5974 H       
  32 H32           -2.0894    -3.8659    -3.3236 H       
  33 H33           -0.3212    -2.0777    -1.6657 H       
  34 H34           -2.4865     0.9540     0.3907 H       
  35 H35           -4.5918     0.1484    -0.5454 H       
  36 H36           -6.3587    -2.3523    -4.3405 H       
  37 H37           -8.7585    -1.8107    -4.2748 H       
  38 H38           -8.3928    -0.6593    -0.1802 H       
  39 H39           -5.9947    -1.2094    -0.2361 H       
  40 H40            1.8828     1.6627     0.8830 H       
  41 H41            1.8658     1.6723    -0.8968 H       
  42 H42            1.2996     3.6552     2.1419 H       
  43 H43            1.2001     6.1155     2.1560 H       
  44 H44            1.1306     7.3571     0.0308 H       
  45 H45            1.1614     6.1384    -2.1087 H       
  46 H46            1.2693     3.6785    -2.1229 H       
@<TRIPOS>BOND
   1    1    2 1
   2    1   23 1
   3    1   30 1
   4    2    3 1
   5    2    9 1
   6    2   31 1
   7    3   20 1
   8    3   21 1
   9    3   22 1
  10    4    5 1
  11    4   12 1
  12    4   13 1
  13    5    6 2
  14    6    7 1
  15    6   32 1
  16    7    8 ar
  17    7   12 ar
  18    8    9 ar
  19    8   33 1
  20    9   10 ar
  21   10   11 ar
  22   10   34 1
  23   11   12 ar
  24   11   35 1
  25   13   14 ar
  26   13   18 ar
  27   14   15 ar
  28   14   36 1
  29   15   16 ar
  30   15   37 1
  31   16   17 ar
  32   16   19 1
  33   17   18 ar
  34   17   38 1
  35   18   39 1
  36   23   24 1
  37   23   40 1
  38   23   41 1
  39   24   25 ar
  40   24   29 ar
  41   25   26 ar
  42   25   42 1
  43   26   27 ar
  44   26   43 1
  45   27   28 ar
  46   27   44 1
  47   28   29 ar
  48   28   45 1
  49   29   46 1

#	End of record

