#	Name: ASD03082205
#	Creating user name:	WinNT
#	Creation time:	15. 06. 2019 20:27

#	Modifying user name:	WinNT
#	Modification time:	15. 06. 2019 20:27

#	Program:	/corina/corina34_cracker 3.40 0067  02.08.2006

@<TRIPOS>MOLECULE
ASD03082205
  43   45    0    0    0
SMALL
NO_CHARGES


@<TRIPOS>ATOM
   1 N1             0.2242     1.8069    -0.2068 N.pl3   
   2 N2             0.0194     0.4187    -0.2596 N.2     
   3 C3             1.1745    -0.1490    -0.0007 C.2     
   4 N4             2.0884     0.8001     0.2108 N.2     
   5 C5             1.5308     1.9886     0.0900 C.2     
   6 N6             1.4089    -1.5246     0.0464 N.pl3   
   7 C7             0.3416    -2.4205    -0.0745 C.ar    
   8 C8             0.5629    -3.7056    -0.5533 C.ar    
   9 C9            -0.4923    -4.5885    -0.6714 C.ar    
  10 C10           -1.7704    -4.1936    -0.3131 C.ar    
  11 C11           -1.9935    -2.9131     0.1639 C.ar    
  12 C12           -0.9400    -2.0284     0.2891 C.ar    
  13 C13           -0.2529    -5.9826    -1.1912 C.3     
  14 F14            1.1055    -6.1443    -1.4841 F       
  15 F15           -0.6345    -6.9144    -0.2199 F       
  16 F16           -1.0073    -6.1835    -2.3520 F       
  17 N17            4.2128     4.5367     0.2929 N.ar    
  18 C18            3.6016     3.3784     0.1510 C.ar    
  19 C19            2.2137     3.2906     0.2504 C.ar    
  20 C20            1.4758     4.4539     0.5038 C.ar    
  21 C21            2.1584     5.6462     0.6455 C.ar    
  22 C22            3.5440     5.6532     0.5329 C.ar    
  23 C23           -0.7777     2.8512    -0.4343 C.3     
  24 O24           -1.4163     3.1761     0.8021 O.3     
  25 F25           -2.8013    -5.0591    -0.4295 F       
  26 O26            4.2200     6.8207     0.6715 O.3     
  27 C27            5.6424     6.7656     0.5461 C.3     
  28 C28            6.2255     8.1680     0.7313 C.3     
  29 H29            2.3120    -1.8590     0.1631 H       
  30 H30            1.5594    -4.0138    -0.8332 H       
  31 H31           -2.9911    -2.6072     0.4424 H       
  32 H32           -1.1137    -1.0312     0.6657 H       
  33 H33            4.1811     2.4883    -0.0445 H       
  34 H34            0.3994     4.4194     0.5861 H       
  35 H35            1.6217     6.5627     0.8412 H       
  36 H36           -0.2913     3.7399    -0.8365 H       
  37 H37           -1.5223     2.4918    -1.1445 H       
  38 H38           -2.0933     3.8625     0.7266 H       
  39 H39            6.0488     6.0998     1.3074 H       
  40 H40            5.9057     6.3903    -0.4428 H       
  41 H41            7.3105     8.1260     0.6356 H       
  42 H42            5.8191     8.8338    -0.0301 H       
  43 H43            5.9622     8.5433     1.7202 H       
@<TRIPOS>BOND
   1    1    2 1
   2    1    5 1
   3    1   23 1
   4    2    3 2
   5    3    4 1
   6    3    6 1
   7    4    5 2
   8    5   19 1
   9    6    7 1
  10    6   29 1
  11    7    8 ar
  12    7   12 ar
  13    8    9 ar
  14    8   30 1
  15    9   10 ar
  16    9   13 1
  17   10   11 ar
  18   10   25 1
  19   11   12 ar
  20   11   31 1
  21   12   32 1
  22   13   14 1
  23   13   15 1
  24   13   16 1
  25   17   18 ar
  26   17   22 ar
  27   18   19 ar
  28   18   33 1
  29   19   20 ar
  30   20   21 ar
  31   20   34 1
  32   21   22 ar
  33   21   35 1
  34   22   26 1
  35   23   24 1
  36   23   36 1
  37   23   37 1
  38   24   38 1
  39   26   27 1
  40   27   28 1
  41   27   39 1
  42   27   40 1
  43   28   41 1
  44   28   42 1
  45   28   43 1

#	End of record

