#	Name: ASD07930201
#	Creating user name:	WinNT
#	Creation time:	15. 06. 2019 21:11

#	Modifying user name:	WinNT
#	Modification time:	15. 06. 2019 21:11

#	Program:	/corina/corina34_cracker 3.40 0067  02.08.2006

@<TRIPOS>MOLECULE
ASD07930201
  60   64    0    0    0
SMALL
NO_CHARGES


@<TRIPOS>ATOM
   1 C1             0.3702     1.1390     0.8305 C.2     
   2 C2             0.1489    -0.3095     0.6246 C.2     
   3 N3             1.6532     1.6294     0.7388 N.am    
   4 N4             1.1920    -1.1561     0.7980 N.am    
   5 C5             2.4883    -0.6043     1.2172 C.3     
   6 C6             2.7425     0.6920     0.4336 C.3     
   7 C7            -0.6777     1.9648     1.0991 C.2     
   8 C8            -0.4729     3.3360     1.2967 C.2     
   9 C9             0.7941     3.8458     1.2191 C.2     
  10 C10            1.9044     2.9371     0.9230 C.2     
  11 O11           -0.9463    -0.7310     0.3068 O.2     
  12 O12            3.0443     3.3624     0.8444 O.2     
  13 C13            1.7332     5.7747     2.4262 C.2     
  14 N14            1.7265     7.0700     2.2671 N.2     
  15 C15            1.0258     7.3792     1.1657 C.2     
  16 C16            0.5783     6.2341     0.6165 C.2     
  17 N17            1.0246     5.2108     1.4129 N.pl3   
  18 C18            0.7813     8.7683     0.6349 C.3     
  19 C19            1.0313    -2.5945     0.5716 C.3     
  20 C20            0.8218    -2.8555    -0.9213 C.3     
  21 C21           -0.1825    -3.1013     1.3532 C.3     
  22 O22           -0.4783    -2.4039    -1.3060 O.3     
  23 C23           -0.8877    -2.7040    -2.5667 C.ar    
  24 C24            0.0001    -3.2807    -3.4593 C.ar    
  25 C25           -0.4175    -3.5843    -4.7405 C.ar    
  26 C26           -1.7144    -3.3087    -5.1233 C.ar    
  27 C27           -2.6080    -2.7287    -4.2319 C.ar    
  28 C28           -4.0047    -2.4486    -4.7219 C.3     
  29 C29           -4.9540    -2.2336    -3.5449 C.3     
  30 C30           -4.3347    -1.1897    -2.6082 C.3     
  31 C31           -3.1166    -1.8135    -1.9300 C.3     
  32 C32           -2.1998    -2.4345    -2.9510 C.ar    
  33 F33           -2.4241    -0.8237    -1.2244 F       
  34 F34           -3.5420    -2.8031    -1.0374 F       
  35 H35            2.4662    -0.3883     2.2853 H       
  36 H36            3.2790    -1.3232     1.0023 H       
  37 H37            2.7568     0.4794    -0.6354 H       
  38 H38            3.6961     1.1244     0.7365 H       
  39 H39           -1.6767     1.5589     1.1602 H       
  40 H40           -1.3090     3.9860     1.5084 H       
  41 H41            2.2237     5.2402     3.2263 H       
  42 H42           -0.0176     6.1398    -0.2793 H       
  43 H43            1.5792     9.0387    -0.0567 H       
  44 H44           -0.1757     8.7949     0.1138 H       
  45 H45            0.7635     9.4760     1.4637 H       
  46 H46            1.9256    -3.1177     0.9099 H       
  47 H47            1.5774    -2.3175    -1.4938 H       
  48 H48            0.9085    -3.9239    -1.1191 H       
  49 H49           -1.0768    -2.5781     1.0149 H       
  50 H50           -0.3021    -4.1716     1.1847 H       
  51 H51           -0.0332    -2.9154     2.4168 H       
  52 H52            1.0147    -3.4918    -3.1552 H       
  53 H53            0.2693    -4.0360    -5.4410 H       
  54 H54           -2.0377    -3.5460    -6.1261 H       
  55 H55           -3.9947    -1.5535    -5.3437 H       
  56 H56           -4.3536    -3.2938    -5.3152 H       
  57 H57           -5.9160    -1.8742    -3.9102 H       
  58 H58           -5.0920    -3.1723    -3.0084 H       
  59 H59           -4.0274    -0.3164    -3.1837 H       
  60 H60           -5.0640    -0.8947    -1.8538 H       
@<TRIPOS>BOND
   1    1    2 1
   2    1    3 1
   3    1    7 2
   4    2    4 am
   5    2   11 2
   6    3    6 1
   7    3   10 am
   8    4    5 1
   9    4   19 1
  10    5    6 1
  11    5   35 1
  12    5   36 1
  13    6   37 1
  14    6   38 1
  15    7    8 1
  16    7   39 1
  17    8    9 2
  18    8   40 1
  19    9   10 1
  20    9   17 1
  21   10   12 2
  22   13   14 2
  23   13   17 1
  24   13   41 1
  25   14   15 1
  26   15   16 2
  27   15   18 1
  28   16   17 1
  29   16   42 1
  30   18   43 1
  31   18   44 1
  32   18   45 1
  33   19   20 1
  34   19   21 1
  35   19   46 1
  36   20   22 1
  37   20   47 1
  38   20   48 1
  39   21   49 1
  40   21   50 1
  41   21   51 1
  42   22   23 1
  43   23   24 ar
  44   23   32 ar
  45   24   25 ar
  46   24   52 1
  47   25   26 ar
  48   25   53 1
  49   26   27 ar
  50   26   54 1
  51   27   28 1
  52   27   32 ar
  53   28   29 1
  54   28   55 1
  55   28   56 1
  56   29   30 1
  57   29   57 1
  58   29   58 1
  59   30   31 1
  60   30   59 1
  61   30   60 1
  62   31   32 1
  63   31   33 1
  64   31   34 1

#	End of record

