#	Name: ASD01940570
#	Creating user name:	WinNT
#	Creation time:	15. 06. 2019 20:12

#	Modifying user name:	WinNT
#	Modification time:	15. 06. 2019 20:12

#	Program:	/corina/corina34_cracker 3.40 0067  02.08.2006

@<TRIPOS>MOLECULE
ASD01940570
  42   42    0    0    0
SMALL
NO_CHARGES


@<TRIPOS>ATOM
   1 C1            -0.0180     1.4743     0.0101 C.2     
   2 C2             0.0021    -0.0041     0.0020 C.ar    
   3 C3            -1.1954    -0.7213     0.0096 C.ar    
   4 C4            -1.1695    -2.1013     0.0015 C.ar    
   5 C5             0.0409    -2.7736    -0.0142 C.ar    
   6 C6             1.2306    -2.0680    -0.0218 C.ar    
   7 C7             1.2183    -0.6883    -0.0191 C.ar    
   8 O8             1.0263     2.0963     0.0035 O.2     
   9 N9            -1.1942     2.1322     0.0193 N.am    
  10 N10            2.5199    -2.7948    -0.0385 N.pl3   
  11 O11            2.5325    -4.0128    -0.0456 O.2     
  12 O12            3.5684    -2.1750    -0.0452 O.2     
  13 C13           -1.2141     3.5970     0.0274 C.3     
  14 C14           -2.6633     4.0874     0.0369 C.3     
  15 O15           -3.2912     3.6941     1.2588 O.3     
  16 C16           -4.6554     4.1049     1.3698 C.3     
  17 C17           -5.2230     3.6322     2.7097 C.3     
  18 O18           -4.5407     4.2948     3.7763 O.3     
  19 C19           -4.9972     3.9225     5.0782 C.3     
  20 C20           -4.2011     4.6890     6.1363 C.3     
  21 O21           -4.4800     6.0859     6.0230 O.3     
  22 C22           -3.7828     6.8966     6.9711 C.3     
  23 Br23          -2.7901    -3.0757     0.0123 Br      
  24 H24           -2.1399    -0.1977     0.0222 H       
  25 H25            0.0561    -3.8535    -0.0201 H       
  26 H26            2.1480    -0.1388    -0.0295 H       
  27 H27           -2.0276     1.6358     0.0206 H       
  28 H28           -0.7010     3.9625     0.9169 H       
  29 H29           -0.7094     3.9722    -0.8630 H       
  30 H30           -2.6798     5.1740    -0.0467 H       
  31 H31           -3.2004     3.6501    -0.8048 H       
  32 H32           -4.7132     5.1919     1.3139 H       
  33 H33           -5.2338     3.6679     0.5558 H       
  34 H34           -6.2863     3.8673     2.7571 H       
  35 H35           -5.0844     2.5551     2.8033 H       
  36 H36           -6.0558     4.1636     5.1748 H       
  37 H37           -4.8540     2.8514     5.2210 H       
  38 H38           -4.4868     4.3408     7.1289 H       
  39 H39           -3.1354     4.5177     5.9840 H       
  40 H40           -4.0598     6.5942     7.9810 H       
  41 H41           -2.7085     6.7711     6.8360 H       
  42 H42           -4.0483     7.9428     6.8193 H       
@<TRIPOS>BOND
   1    1    2 1
   2    1    8 2
   3    1    9 am
   4    2    3 ar
   5    2    7 ar
   6    3    4 ar
   7    3   24 1
   8    4    5 ar
   9    4   23 1
  10    5    6 ar
  11    5   25 1
  12    6    7 ar
  13    6   10 1
  14    7   26 1
  15    9   13 1
  16    9   27 1
  17   10   11 2
  18   10   12 2
  19   13   14 1
  20   13   28 1
  21   13   29 1
  22   14   15 1
  23   14   30 1
  24   14   31 1
  25   15   16 1
  26   16   17 1
  27   16   32 1
  28   16   33 1
  29   17   18 1
  30   17   34 1
  31   17   35 1
  32   18   19 1
  33   19   20 1
  34   19   36 1
  35   19   37 1
  36   20   21 1
  37   20   38 1
  38   20   39 1
  39   21   22 1
  40   22   40 1
  41   22   41 1
  42   22   42 1

#	End of record

