#	Name: ASD01901506
#	Creating user name:	WinNT
#	Creation time:	15. 06. 2019 19:53

#	Modifying user name:	WinNT
#	Modification time:	15. 06. 2019 19:53

#	Program:	/corina/corina34_cracker 3.40 0067  02.08.2006

@<TRIPOS>MOLECULE
ASD01901506
  33   34    0    0    0
SMALL
NO_CHARGES


@<TRIPOS>ATOM
   1 O1            -0.3343     0.4108     0.6612 O.3     
   2 C2            -0.7569    -0.8662     0.7497 C.2     
   3 O3             0.0184    -1.7412     1.0818 O.2     
   4 C4            -2.1549    -1.2003     0.4444 C.2     
   5 C5            -2.4811    -2.4717     0.3440 C.2     
   6 C6            -3.8702    -2.9559     0.0458 C.3     
   7 C7            -4.7130    -1.8160    -0.5300 C.3     
   8 C8            -4.5634    -0.5915     0.3812 C.3     
   9 C9            -3.1300    -0.0724     0.2710 C.3     
  10 C10           -2.8882     0.9653     1.3367 C.2     
  11 O11           -2.5988     0.6216     2.4633 O.2     
  12 N12           -2.9936     2.2753     1.0380 N.am    
  13 C13           -2.9239     3.2328     2.0559 C.ar    
  14 C14           -2.1285     3.0056     3.1712 C.ar    
  15 C15           -2.0615     3.9532     4.1755 C.ar    
  16 Cl16          -1.0672     3.6700     5.5701 Cl      
  17 C17           -2.7858     5.1275     4.0699 C.ar    
  18 C18           -3.5793     5.3563     2.9595 C.ar    
  19 Cl19          -4.4865     6.8308     2.8308 Cl      
  20 C20           -3.6457     4.4143     1.9499 C.ar    
  21 H21            0.5939     0.5817     0.8717 H       
  22 H22           -1.7044    -3.2089     0.4839 H       
  23 H23           -3.8217    -3.7702    -0.6771 H       
  24 H24           -4.3317    -3.3180     0.9646 H       
  25 H25           -4.3621    -1.5715    -1.5326 H       
  26 H26           -5.7596    -2.1179    -0.5688 H       
  27 H27           -5.2605     0.1856     0.0677 H       
  28 H28           -4.7678    -0.8760     1.4134 H       
  29 H29           -2.9879     0.3804    -0.7103 H       
  30 H30           -3.1177     2.5543     0.1173 H       
  31 H31           -1.5629     2.0893     3.2541 H       
  32 H32           -2.7321     5.8665     4.8556 H       
  33 H33           -4.2614     4.5955     1.0813 H       
@<TRIPOS>BOND
   1    1    2 1
   2    1   21 1
   3    2    3 2
   4    2    4 1
   5    4    9 1
   6    4    5 2
   7    5    6 1
   8    5   22 1
   9    6    7 1
  10    6   23 1
  11    6   24 1
  12    7    8 1
  13    7   25 1
  14    7   26 1
  15    8    9 1
  16    8   27 1
  17    8   28 1
  18    9   10 1
  19    9   29 1
  20   10   11 2
  21   10   12 am
  22   12   13 1
  23   12   30 1
  24   13   20 ar
  25   13   14 ar
  26   14   15 ar
  27   14   31 1
  28   15   16 1
  29   15   17 ar
  30   17   18 ar
  31   17   32 1
  32   18   19 1
  33   18   20 ar
  34   20   33 1

#	End of record

