#	Name: ASD03090049
#	Creating user name:	WinNT
#	Creation time:	15. 06. 2019 20:28

#	Modifying user name:	WinNT
#	Modification time:	15. 06. 2019 20:28

#	Program:	/corina/corina34_cracker 3.40 0067  02.08.2006

@<TRIPOS>MOLECULE
ASD03090049
  41   43    0    0    0
SMALL
NO_CHARGES


@<TRIPOS>ATOM
   1 N1            -0.0162     1.3436     0.0094 N.am    
   2 C2            -0.2141     0.1139    -0.5056 C.2     
   3 O3             0.6743    -0.4344    -1.1289 O.2     
   4 N4            -1.3968    -0.5081    -0.3296 N.am    
   5 O5            -2.5604    -3.5641    -1.3399 O.3     
   6 N6            -2.6876    -2.5028    -0.7746 N.2     
   7 C7            -1.6015    -1.7806    -0.8626 C.2     
   8 C8            -0.6722    -2.5515    -1.6105 C.2     
   9 C9            -1.3447    -3.6908    -1.8912 C.2     
  10 C10           -0.8283    -4.8724    -2.6711 C.3     
  11 C11            1.2477     1.9396    -0.0681 C.ar    
  12 C12            1.3617     3.3283    -0.2198 C.ar    
  13 C13            2.6254     3.9136    -0.2962 C.ar    
  14 C14            3.7579     3.1209    -0.2218 C.ar    
  15 C15            3.6387     1.7459    -0.0720 C.ar    
  16 C16            2.3901     1.1589     0.0107 C.ar    
  17 O17           -0.9085     3.9553    -1.1056 O.3     
  18 C18            0.1490     4.1681    -0.2990 C.2     
  19 C19           -0.0937     5.2902     0.4298 C.2     
  20 C20           -1.3601     5.7656     0.0337 C.2     
  21 C21           -1.8228     4.9195    -0.9069 C.2     
  22 O22            4.9904     3.6905    -0.2962 O.3     
  23 C23            6.1162     2.8143    -0.2127 C.3     
  24 C24            7.4063     3.6305    -0.3143 C.3     
  25 H25           -0.7508     1.8171     0.4302 H       
  26 H26           -2.1055    -0.0707     0.1676 H       
  27 H27            0.3373    -2.2888    -1.8902 H       
  28 H28           -1.6035    -5.6365    -2.7289 H       
  29 H29           -0.5572    -4.5531    -3.6774 H       
  30 H30            0.0493    -5.2822    -2.1712 H       
  31 H31            2.7202     4.9830    -0.4135 H       
  32 H32            4.5258     1.1325    -0.0152 H       
  33 H33            2.3045     0.0892     0.1325 H       
  34 H34            0.5579     5.7316     1.1694 H       
  35 H35           -1.8645     6.6421     0.4130 H       
  36 H36           -2.7713     5.0024    -1.4167 H       
  37 H37            6.0950     2.2854     0.7402 H       
  38 H38            6.0769     2.0935    -1.0293 H       
  39 H39            7.4275     4.1594    -1.2672 H       
  40 H40            7.4456     4.3513     0.5023 H       
  41 H41            8.2650     2.9621    -0.2506 H       
@<TRIPOS>BOND
   1    1    2 am
   2    1   11 1
   3    1   25 1
   4    2    3 2
   5    2    4 am
   6    4    7 1
   7    4   26 1
   8    5    6 1
   9    5    9 1
  10    6    7 2
  11    7    8 1
  12    8    9 2
  13    8   27 1
  14    9   10 1
  15   10   28 1
  16   10   29 1
  17   10   30 1
  18   11   12 ar
  19   11   16 ar
  20   12   13 ar
  21   12   18 1
  22   13   14 ar
  23   13   31 1
  24   14   15 ar
  25   14   22 1
  26   15   16 ar
  27   15   32 1
  28   16   33 1
  29   17   18 1
  30   17   21 1
  31   18   19 2
  32   19   20 1
  33   19   34 1
  34   20   21 2
  35   20   35 1
  36   21   36 1
  37   22   23 1
  38   23   24 1
  39   23   37 1
  40   23   38 1
  41   24   39 1
  42   24   40 1
  43   24   41 1

#	End of record

