#	Name: ASD00845023
#	Creating user name:	WinNT
#	Creation time:	15. 06. 2019 18:51

#	Modifying user name:	WinNT
#	Modification time:	15. 06. 2019 18:51

#	Program:	/corina/corina34_cracker 3.40 0067  02.08.2006

@<TRIPOS>MOLECULE
ASD00845023
  82   87    0    0    0
SMALL
NO_CHARGES


@<TRIPOS>ATOM
   1 C1            -0.0167     1.3829     0.0096 C.ar    
   2 C2             0.0021    -0.0041     0.0020 C.ar    
   3 C3             1.2143    -0.6791    -0.0132 C.ar    
   4 C4             2.3989     0.0312    -0.0207 C.ar    
   5 C5             2.3774     1.4139    -0.0126 C.ar    
   6 C6             1.1710     2.0888     0.0021 C.ar    
   7 C7             1.2384    -2.1858    -0.0210 C.3     
   8 C8             0.4953    -2.7219    -1.2261 C.2     
   9 O9             2.6067    -2.6715    -0.0096 O.3     
  10 C10            3.3981    -2.2932    -1.0311 C.2     
  11 N11            4.6791    -2.7091    -1.0809 N.am    
  12 O12            2.9573    -1.5769    -1.9081 O.2     
  13 C13            5.5606    -2.3077    -2.1877 C.3     
  14 C14            6.8542    -1.7367    -1.5971 C.3     
  15 N15            7.4342    -2.7111    -0.6631 N.3     
  16 C16            6.5391    -2.9556     0.4757 C.3     
  17 C17            5.2343    -3.5715    -0.0267 C.3     
  18 C18            8.7610    -2.2769    -0.2061 C.3     
  19 C19            9.2796    -3.2494     0.8569 C.3     
  20 C20           10.6868    -2.8267     1.2849 C.3     
  21 N21           11.5768    -2.8302     0.1169 N.3     
  22 C22           11.1252    -1.8692    -0.8975 C.3     
  23 C23            9.7311    -2.2632    -1.3907 C.3     
  24 C24           12.9661    -2.5639     0.5128 C.3     
  25 O25            0.7737    -2.5253    -2.3901 O.2     
  26 N26           -0.5308    -3.4561    -0.7640 N.am    
  27 C27            0.4691    -2.7339     1.1590 C.ar    
  28 C28           -0.5747    -3.4836     0.6309 C.ar    
  29 C29            0.6332    -2.6128     2.5205 C.ar    
  30 C30           -0.2492    -3.2434     3.3816 C.ar    
  31 C31           -1.2945    -3.9941     2.8677 C.ar    
  32 C32           -1.4596    -4.1159     1.5012 C.ar    
  33 Cl33          -0.0462    -3.0943     5.0993 Cl      
  34 F34           -2.1562    -4.6098     3.7065 F       
  35 C35           -0.9806    -5.8529    -2.0396 C.ar    
  36 C36           -1.3041    -6.8940    -1.1897 C.ar    
  37 C37           -0.1615    -6.0797    -3.1298 C.ar    
  38 C38            0.3342    -7.3476    -3.3700 C.ar    
  39 C39            0.0111    -8.3886    -2.5198 C.ar    
  40 C40           -0.8081    -8.1618    -1.4296 C.ar    
  41 H41            0.3983    -9.3792    -2.7075 H       
  42 H42           -1.9441    -6.7168    -0.3379 H       
  43 O43           -1.1648    -0.7006     0.0099 O.3     
  44 C44           -2.3744     0.0601     0.0260 C.3     
  45 C45           -3.5740    -0.8895     0.0328 C.3     
  46 F46           -3.5417    -1.6899    -1.1142 F       
  47 F47           -3.5190    -1.7022     1.1702 F       
  48 S48           -1.6183    -4.2384    -1.7375 S.o2    
  49 O49           -2.7976    -4.4110    -0.9639 O.2     
  50 O50           -1.6001    -3.5597    -2.9858 O.2     
  51 H51           -0.9590     1.9106     0.0170 H       
  52 H52            3.3426    -0.4937    -0.0325 H       
  53 H53            3.3047     1.9675    -0.0178 H       
  54 H54            1.1569     3.1687     0.0084 H       
  55 H55            5.7918    -3.1758    -2.8049 H       
  56 H56            5.0667    -1.5465    -2.7916 H       
  57 H57            7.5633    -1.5362    -2.4003 H       
  58 H58            6.6340    -0.8106    -1.0662 H       
  59 H59            7.0196    -3.6391     1.1758 H       
  60 H60            6.3232    -2.0125     0.9777 H       
  61 H61            4.5247    -3.6486     0.7971 H       
  62 H62            5.4312    -4.5616    -0.4379 H       
  63 H63            8.6902    -1.2759     0.2195 H       
  64 H64            8.6156    -3.2316     1.7212 H       
  65 H65            9.3124    -4.2572     0.4431 H       
  66 H66           10.6510    -1.8242     1.7113 H       
  67 H67           11.0646    -3.5254     2.0314 H       
  68 H68           11.0874    -0.8711    -0.4609 H       
  69 H69           11.8215    -1.8724    -1.7362 H       
  70 H70            9.7710    -3.2555    -1.8398 H       
  71 H71            9.3898    -1.5409    -2.1322 H       
  72 H72           13.2996    -3.3339     1.2085 H       
  73 H73           13.6038    -2.5721    -0.3712 H       
  74 H74           13.0259    -1.5881     0.9949 H       
  75 H75            1.4495    -2.0270     2.9166 H       
  76 H76           -2.2766    -4.7022     1.1071 H       
  77 H77            0.0910    -5.2664    -3.7940 H       
  78 H78            0.9736    -7.5249    -4.2221 H       
  79 H79           -1.0608    -8.9752    -0.7656 H       
  80 H80           -2.3995     0.6837     0.9196 H       
  81 H81           -2.4172     0.6932    -0.8603 H       
  82 H82           -4.4966    -0.3093     0.0451 H       
@<TRIPOS>BOND
   1    1    2 ar
   2    1    6 ar
   3    1   51 1
   4    2    3 ar
   5    2   43 1
   6    3    4 ar
   7    3    7 1
   8    4    5 ar
   9    4   52 1
  10    5    6 ar
  11    5   53 1
  12    6   54 1
  13    7    8 1
  14    7    9 1
  15    7   27 1
  16    8   25 2
  17    8   26 am
  18    9   10 1
  19   10   11 am
  20   10   12 2
  21   11   13 1
  22   11   17 1
  23   13   14 1
  24   13   55 1
  25   13   56 1
  26   14   15 1
  27   14   57 1
  28   14   58 1
  29   15   16 1
  30   15   18 1
  31   16   17 1
  32   16   59 1
  33   16   60 1
  34   17   61 1
  35   17   62 1
  36   18   19 1
  37   18   23 1
  38   18   63 1
  39   19   20 1
  40   19   64 1
  41   19   65 1
  42   20   21 1
  43   20   66 1
  44   20   67 1
  45   21   22 1
  46   21   24 1
  47   22   23 1
  48   22   68 1
  49   22   69 1
  50   23   70 1
  51   23   71 1
  52   24   72 1
  53   24   73 1
  54   24   74 1
  55   26   48 am
  56   26   28 1
  57   27   28 ar
  58   27   29 ar
  59   28   32 ar
  60   29   30 ar
  61   29   75 1
  62   30   31 ar
  63   30   33 1
  64   31   32 ar
  65   31   34 1
  66   32   76 1
  67   35   36 ar
  68   35   37 ar
  69   35   48 1
  70   36   42 1
  71   36   40 ar
  72   37   38 ar
  73   37   77 1
  74   38   39 ar
  75   38   78 1
  76   39   40 ar
  77   39   41 1
  78   40   79 1
  79   43   44 1
  80   44   45 1
  81   44   80 1
  82   44   81 1
  83   45   46 1
  84   45   47 1
  85   45   82 1
  86   48   49 2
  87   48   50 2

#	End of record

