#	Name: ASD02198184
#	Creating user name:	WinNT
#	Creation time:	15. 06. 2019 20:18

#	Modifying user name:	WinNT
#	Modification time:	15. 06. 2019 20:18

#	Program:	/corina/corina34_cracker 3.40 0067  02.08.2006

@<TRIPOS>MOLECULE
ASD02198184
  40   42    0    0    0
SMALL
NO_CHARGES


@<TRIPOS>ATOM
   1 C1            -0.1514     1.3907    -0.4891 C.2     
   2 C2            -0.0240     0.0184    -0.4404 C.2     
   3 C3            -1.1311    -0.8605    -0.2113 C.1     
   4 S4             1.3567     2.1316    -0.7779 S.3     
   5 C5             2.1811     0.5818    -0.8361 C.2     
   6 C6             1.2786    -0.4357    -0.6341 C.2     
   7 C7             3.5605     0.4073    -1.0576 C.2     
   8 C8             4.4102     1.5729    -1.3869 C.ar    
   9 O9             4.0550    -0.7045    -0.9780 O.2     
  10 N10            1.6293    -1.7766    -0.6241 N.pl3   
  11 N11           -1.3373     2.0704    -0.3317 N.pl3   
  12 N12           -2.0093    -1.5578    -0.0296 N.1     
  13 C13            5.2490     2.1248    -0.4179 C.ar    
  14 C14           -1.3399     3.4666    -0.2725 C.ar    
  15 C15            6.0391     3.2114    -0.7314 C.ar    
  16 C16            6.0014     3.7549    -2.0033 C.ar    
  17 C17            5.1727     3.2135    -2.9695 C.ar    
  18 C18            4.3806     2.1222    -2.6710 C.ar    
  19 C19           -2.3895     4.1847    -0.8331 C.ar    
  20 Cl20           3.3412     1.4433    -3.8844 Cl      
  21 C21           -2.3930     5.5653    -0.7752 C.ar    
  22 C22           -1.3541     6.2367    -0.1608 C.ar    
  23 C23           -0.3007     5.5246     0.4023 C.ar    
  24 C24           -0.2972     4.1374     0.3512 C.ar    
  25 S25            1.0243     6.3818     1.1860 S.3     
  26 C26            0.5532     8.1231     0.9954 C.3     
  27 H27            2.5529    -2.0375    -0.7645 H       
  28 H28            0.9510    -2.4542    -0.4767 H       
  29 H29           -2.1716     1.5805    -0.2619 H       
  30 H30            5.2792     1.7025     0.5756 H       
  31 H31            6.6885     3.6391     0.0180 H       
  32 H32            6.6217     4.6059    -2.2428 H       
  33 H33            5.1477     3.6427    -3.9602 H       
  34 H34           -3.2031     3.6630    -1.3150 H       
  35 H35           -3.2100     6.1207    -1.2117 H       
  36 H36           -1.3596     7.3158    -0.1179 H       
  37 H37            0.5196     3.5817     0.7876 H       
  38 H38            0.4681     8.3626    -0.0646 H       
  39 H39           -0.4053     8.2959     1.4850 H       
  40 H40            1.3135     8.7573     1.4513 H       
@<TRIPOS>BOND
   1    1    2 2
   2    1    4 1
   3    1   11 1
   4    2    3 1
   5    2    6 1
   6    3   12 3
   7    4    5 1
   8    5    6 2
   9    5    7 1
  10    6   10 1
  11    7    8 1
  12    7    9 2
  13    8   13 ar
  14    8   18 ar
  15   10   27 1
  16   10   28 1
  17   11   14 1
  18   11   29 1
  19   13   15 ar
  20   13   30 1
  21   14   19 ar
  22   14   24 ar
  23   15   16 ar
  24   15   31 1
  25   16   17 ar
  26   16   32 1
  27   17   18 ar
  28   17   33 1
  29   18   20 1
  30   19   21 ar
  31   19   34 1
  32   21   22 ar
  33   21   35 1
  34   22   23 ar
  35   22   36 1
  36   23   24 ar
  37   23   25 1
  38   24   37 1
  39   25   26 1
  40   26   38 1
  41   26   39 1
  42   26   40 1

#	End of record

