#	Name: ASD01882946
#	Creating user name:	WinNT
#	Creation time:	15. 06. 2019 19:45

#	Modifying user name:	WinNT
#	Modification time:	15. 06. 2019 19:45

#	Program:	/corina/corina34_cracker 3.40 0067  02.08.2006

@<TRIPOS>MOLECULE
ASD01882946
  40   43    0    0    0
SMALL
NO_CHARGES


@<TRIPOS>ATOM
   1 C1            -0.0159     1.3220     0.0093 C.2     
   2 N2             0.0021    -0.0041     0.0020 N.2     
   3 C3             1.1523    -0.6857    -0.0126 C.2     
   4 C4             2.3835     0.0173    -0.0206 C.2     
   5 C5             2.3523     1.3664    -0.0131 C.2     
   6 N6             1.1484     2.0132     0.0019 N.pl3   
   7 O7            -1.0993     2.1290     0.0184 O.3     
   8 C8             0.8540     3.4562     0.0125 C.3     
   9 C9            -0.6831     3.5211     0.0242 C.3     
  10 O10            1.1423    -1.9071    -0.0187 O.2     
  11 C11           -1.1944     4.2379    -1.2270 C.3     
  12 O12           -2.6209     4.3119    -1.1842 O.3     
  13 C13           -4.4977     6.1693    -4.3584 C.ar    
  14 C14           -5.2523     5.6486    -3.3086 C.ar    
  15 C15           -4.6226     5.0290    -2.2496 C.ar    
  16 C16           -3.2385     4.9233    -2.2287 C.ar    
  17 C17           -2.4841     5.4413    -3.2727 C.ar    
  18 C18           -3.1082     6.0620    -4.3344 C.ar    
  19 C19           -5.1724     6.8310    -5.5019 C.ar    
  20 C20           -4.7503     8.0893    -5.9312 C.ar    
  21 C21           -5.3822     8.6998    -6.9967 C.ar    
  22 C22           -6.4318     8.0658    -7.6370 C.ar    
  23 C23           -6.8543     6.8184    -7.2148 C.ar    
  24 C24           -6.2263     6.1956    -6.1550 C.ar    
  25 Cl25          -3.4340     8.8862    -5.1275 Cl      
  26 H26            3.3237    -0.5140    -0.0321 H       
  27 H27            3.2727     1.9314    -0.0185 H       
  28 H28            1.2651     3.9237     0.9072 H       
  29 H29            1.2480     3.9334    -0.8848 H       
  30 H30           -1.0396     4.0220     0.9243 H       
  31 H31           -0.7793     5.2451    -1.2639 H       
  32 H32           -0.8857     3.6850    -2.1142 H       
  33 H33           -6.3291     5.7306    -3.3242 H       
  34 H34           -5.2068     4.6257    -1.4357 H       
  35 H35           -1.4075     5.3579    -3.2536 H       
  36 H36           -2.5209     6.4648    -5.1463 H       
  37 H37           -5.0567     9.6741    -7.3303 H       
  38 H38           -6.9234     8.5470    -8.4696 H       
  39 H39           -7.6748     6.3286    -7.7182 H       
  40 H40           -6.5544     5.2194    -5.8296 H       
@<TRIPOS>BOND
   1    1    2 2
   2    1    6 1
   3    1    7 1
   4    2    3 1
   5    3    4 1
   6    3   10 2
   7    4    5 2
   8    4   26 1
   9    5    6 1
  10    5   27 1
  11    6    8 1
  12    7    9 1
  13    8    9 1
  14    8   28 1
  15    8   29 1
  16    9   11 1
  17    9   30 1
  18   11   12 1
  19   11   31 1
  20   11   32 1
  21   12   16 1
  22   13   14 ar
  23   13   18 ar
  24   13   19 1
  25   14   15 ar
  26   14   33 1
  27   15   16 ar
  28   15   34 1
  29   16   17 ar
  30   17   18 ar
  31   17   35 1
  32   18   36 1
  33   19   20 ar
  34   19   24 ar
  35   20   21 ar
  36   20   25 1
  37   21   22 ar
  38   21   37 1
  39   22   23 ar
  40   22   38 1
  41   23   24 ar
  42   23   39 1
  43   24   40 1

#	End of record

