#	Name: ASD04590859
#	Creating user name:	WinNT
#	Creation time:	15. 06. 2019 20:51

#	Modifying user name:	WinNT
#	Modification time:	15. 06. 2019 20:51

#	Program:	/corina/corina34_cracker 3.40 0067  02.08.2006

@<TRIPOS>MOLECULE
ASD04590859
  63   68    0    0    0
SMALL
NO_CHARGES


@<TRIPOS>ATOM
   1 N1             0.0197     1.4827     0.3146 N.ar    
   2 C2             0.0575     0.1744     0.0967 C.ar    
   3 N3             1.1929    -0.5044     0.0628 N.ar    
   4 C4             2.3561     0.1124     0.2488 C.ar    
   5 C5             2.3497     1.5024     0.4822 C.ar    
   6 C6             1.1311     2.1732     0.5094 C.ar    
   7 N7             3.6575    -0.3246     0.2673 N.pl3   
   8 C8             4.5191     0.7322     0.5060 C.ar    
   9 C9             3.7527     1.9027     0.6488 C.ar    
  10 C10            5.9000     0.8270     0.6196 C.ar    
  11 N11            6.4748     1.9887     0.8557 N.ar    
  12 C12            5.7839     3.1064     0.9949 C.ar    
  13 C13            4.4086     3.1078     0.8975 C.ar    
  14 N14           -1.1332    -0.5047    -0.1018 N.pl3   
  15 C15           -2.3490     0.1652     0.0336 C.ar    
  16 N16           -2.3615     1.4188     0.4570 N.ar    
  17 C17           -3.4878     2.0913     0.6000 C.ar    
  18 C18           -4.7082     1.5005     0.3088 C.ar    
  19 C19           -4.7346     0.1809    -0.1399 C.ar    
  20 C20           -3.5339    -0.4901    -0.2833 C.ar    
  21 N21           -5.8989     2.2203     0.4640 N.3     
  22 C22            4.0754    -1.7138     0.0636 C.3     
  23 C23            3.3899    -2.6291     1.0990 C.3     
  24 C24            3.6223    -2.2026    -1.3233 C.3     
  25 C25            2.6773    -3.3978    -1.0823 C.3     
  26 C26            2.1468    -3.1785     0.3562 C.3     
  27 C27           -6.9854     1.3470     0.9443 C.3     
  28 C28           -7.5223     1.9631     2.2533 C.3     
  29 C29           -7.0953     3.4503     2.1405 C.3     
  30 C30           -5.7260     3.3293     1.4262 C.3     
  31 N31           -6.9435     4.0564     3.4700 N.3     
  32 C32           -6.6090     5.4828     3.3631 C.3     
  33 C33           -8.1529     3.8586     4.2800 C.3     
  34 H34            1.0932     3.2379     0.6862 H       
  35 H35            6.5079    -0.0593     0.5139 H       
  36 H36            6.3043     4.0328     1.1880 H       
  37 H37            3.8499     4.0249     1.0120 H       
  38 H38           -1.1215    -1.4462    -0.3349 H       
  39 H39           -3.4589     3.1132     0.9481 H       
  40 H40           -5.6704    -0.3046    -0.3742 H       
  41 H41           -3.5173    -1.5132    -0.6290 H       
  42 H42            5.1588    -1.7943     0.1523 H       
  43 H43            4.0539    -3.4444     1.3862 H       
  44 H44            3.0881    -2.0551     1.9751 H       
  45 H45            3.0915    -1.4061    -1.8448 H       
  46 H46            4.4857    -2.5211    -1.9074 H       
  47 H47            1.8554    -3.3848    -1.7982 H       
  48 H48            3.2262    -4.3373    -1.1474 H       
  49 H49            1.8197    -4.1211     0.7952 H       
  50 H50            1.3385    -2.4472     0.3626 H       
  51 H51           -7.7817     1.3030     0.2012 H       
  52 H52           -6.5991     0.3461     1.1367 H       
  53 H53           -8.6077     1.8765     2.3032 H       
  54 H54           -7.0569     1.4931     3.1197 H       
  55 H55           -7.8035     4.0150     1.5342 H       
  56 H56           -4.9428     3.0893     2.1453 H       
  57 H57           -5.4892     4.2544     0.9006 H       
  58 H58           -7.4045     6.0037     2.8303 H       
  59 H59           -6.5023     5.9068     4.3616 H       
  60 H60           -5.6718     5.5964     2.8182 H       
  61 H61           -8.2842     2.7958     4.4834 H       
  62 H62           -8.0523     4.3989     5.2212 H       
  63 H63           -9.0198     4.2342     3.7363 H       
@<TRIPOS>BOND
   1    1    2 ar
   2    1    6 ar
   3    2    3 ar
   4    2   14 1
   5    3    4 ar
   6    4    5 ar
   7    4    7 1
   8    5    6 ar
   9    5    9 1
  10    6   34 1
  11    7    8 1
  12    7   22 1
  13    8    9 ar
  14    8   10 ar
  15    9   13 ar
  16   10   11 ar
  17   10   35 1
  18   11   12 ar
  19   12   13 ar
  20   12   36 1
  21   13   37 1
  22   14   15 1
  23   14   38 1
  24   15   16 ar
  25   15   20 ar
  26   16   17 ar
  27   17   18 ar
  28   17   39 1
  29   18   19 ar
  30   18   21 1
  31   19   20 ar
  32   19   40 1
  33   20   41 1
  34   21   27 1
  35   21   30 1
  36   22   24 1
  37   22   23 1
  38   22   42 1
  39   23   26 1
  40   23   43 1
  41   23   44 1
  42   24   25 1
  43   24   45 1
  44   24   46 1
  45   25   26 1
  46   25   47 1
  47   25   48 1
  48   26   49 1
  49   26   50 1
  50   27   28 1
  51   27   51 1
  52   27   52 1
  53   28   29 1
  54   28   53 1
  55   28   54 1
  56   29   30 1
  57   29   31 1
  58   29   55 1
  59   30   56 1
  60   30   57 1
  61   31   32 1
  62   31   33 1
  63   32   58 1
  64   32   59 1
  65   32   60 1
  66   33   61 1
  67   33   62 1
  68   33   63 1

#	End of record

