#	Name: ASD01915619
#	Creating user name:	WinNT
#	Creation time:	15. 06. 2019 20:05

#	Modifying user name:	WinNT
#	Modification time:	15. 06. 2019 20:05

#	Program:	/corina/corina34_cracker 3.40 0067  02.08.2006

@<TRIPOS>MOLECULE
ASD01915619
  45   48    0    0    0
SMALL
NO_CHARGES


@<TRIPOS>ATOM
   1 C1            -0.0267     1.3399     0.0671 C.2     
   2 N2            -0.0149    -0.0356     0.0042 N.pl3   
   3 C3            -1.2635    -0.8034    -0.0745 C.3     
   4 C4            -2.3728    -0.0387     0.6458 C.3     
   5 N5            -2.4193     1.3699     0.2694 N.am    
   6 C6            -1.2878     2.0957     0.0993 C.2     
   7 C7             1.2765     1.7498     0.1024 C.2     
   8 C8             2.0295     0.5683     0.0696 C.2     
   9 N9             1.1940    -0.4428     0.0171 N.2     
  10 C10            3.5334     0.4751     0.0902 C.3     
  11 O11            4.0914     1.7893     0.1490 O.3     
  12 C12            5.4469     1.8836     0.1743 C.ar    
  13 O13           -1.3136     3.3059    -0.0196 O.2     
  14 C14            6.0559     3.1288     0.2313 C.ar    
  15 C15            6.2239     0.7345     0.1489 C.ar    
  16 C16            7.6015     0.8329     0.1747 C.ar    
  17 C17            8.2062     2.0753     0.2258 C.ar    
  18 C18            7.4340     3.2218     0.2569 C.ar    
  19 C19           -3.6557     1.9832     0.0807 C.ar    
  20 C20           -4.2240     2.0317    -1.1893 C.ar    
  21 N21           -5.3958     2.6132    -1.3640 N.ar    
  22 C22           -6.0296     3.1492    -0.3348 C.ar    
  23 C23           -5.4681     3.1029     0.9278 C.ar    
  24 N24           -4.2971     2.5177     1.1114 N.ar    
  25 C25           -3.5019     1.4215    -2.3629 C.3     
  26 C26           -6.1948     3.7153     2.0974 C.3     
  27 H27           -1.5385    -0.9447    -1.1197 H       
  28 H28           -1.1238    -1.7747     0.4000 H       
  29 H29           -3.3311    -0.4992     0.4057 H       
  30 H30           -2.2093    -0.1108     1.7211 H       
  31 H31            1.6458     2.7638     0.1455 H       
  32 H32            3.8503    -0.0936     0.9644 H       
  33 H33            3.8788    -0.0261    -0.8140 H       
  34 H34            5.4532     4.0246     0.2553 H       
  35 H35            5.7520    -0.2362     0.1094 H       
  36 H36            8.2068    -0.0613     0.1553 H       
  37 H37            9.2834     2.1502     0.2458 H       
  38 H38            7.9086     4.1912     0.2964 H       
  39 H39           -6.9882     3.6247    -0.4808 H       
  40 H40           -3.7187     0.3542    -2.4078 H       
  41 H41           -3.8365     1.8992    -3.2837 H       
  42 H42           -2.4284     1.5696    -2.2460 H       
  43 H43           -6.8410     2.9669     2.5559 H       
  44 H44           -5.4700     4.0682     2.8311 H       
  45 H45           -6.7989     4.5539     1.7510 H       
@<TRIPOS>BOND
   1    1    2 1
   2    1    7 2
   3    1    6 1
   4    2    3 1
   5    2    9 1
   6    3    4 1
   7    3   27 1
   8    3   28 1
   9    4    5 1
  10    4   29 1
  11    4   30 1
  12    5    6 am
  13    5   19 1
  14    6   13 2
  15    7    8 1
  16    7   31 1
  17    8    9 2
  18    8   10 1
  19   10   11 1
  20   10   32 1
  21   10   33 1
  22   11   12 1
  23   12   14 ar
  24   12   15 ar
  25   14   18 ar
  26   14   34 1
  27   15   16 ar
  28   15   35 1
  29   16   17 ar
  30   16   36 1
  31   17   18 ar
  32   17   37 1
  33   18   38 1
  34   19   20 ar
  35   19   24 ar
  36   20   21 ar
  37   20   25 1
  38   21   22 ar
  39   22   23 ar
  40   22   39 1
  41   23   24 ar
  42   23   26 1
  43   25   40 1
  44   25   41 1
  45   25   42 1
  46   26   43 1
  47   26   44 1
  48   26   45 1

#	End of record

