#	Name: ASD04882547
#	Creating user name:	WinNT
#	Creation time:	15. 06. 2019 20:55

#	Modifying user name:	WinNT
#	Modification time:	15. 06. 2019 20:55

#	Program:	/corina/corina34_cracker 3.40 0067  02.08.2006

@<TRIPOS>MOLECULE
ASD04882547
  72   76    0    0    0
SMALL
NO_CHARGES


@<TRIPOS>ATOM
   1 C1            -0.0215     1.4012    -0.0093 C.ar    
   2 C2            -0.0116     0.0036    -0.0052 C.ar    
   3 C3            -1.2094    -0.7019    -0.0164 C.ar    
   4 C4            -2.4097    -0.0268    -0.0315 C.ar    
   5 C5            -2.4267     1.3708    -0.0352 C.ar    
   6 C6            -1.2239     2.0825    -0.0187 C.ar    
   7 N7             1.1997    -0.6830     0.0096 N.3     
   8 C8             1.3070    -1.5362     1.2013 C.3     
   9 C9             1.3722    -1.4732    -1.2174 C.3     
  10 C10            2.7461    -2.1474    -1.1979 C.3     
  11 N11            2.8533    -3.0006    -0.0062 N.3     
  12 C12            2.6808    -2.2104     1.2208 C.3     
  13 C13           -3.7126     2.0938    -0.0514 C.2     
  14 O14           -3.7265     3.3096    -0.0546 O.2     
  15 N15           -4.8720     1.4066    -0.0627 N.am    
  16 N16            1.1866     2.1110     0.0021 N.am    
  17 C17            4.0683    -3.6893     0.0087 C.ar    
  18 C18            1.2296     3.3599     0.5068 C.2     
  19 C19            2.5162     4.0732     0.6000 C.2     
  20 C20            4.0810    -5.0782     0.0127 C.ar    
  21 O21            0.2069     3.8985     0.8853 O.2     
  22 C22            5.2844    -5.7562     0.0269 C.ar    
  23 C23            6.4753    -5.0539     0.0376 C.ar    
  24 C24            6.4662    -3.6708     0.0336 C.ar    
  25 C25            5.2669    -2.9868     0.0136 C.ar    
  26 O26           -6.1062     2.1005    -0.0783 O.3     
  27 C27           -7.2525     1.2474    -0.0891 C.3     
  28 C28           -8.5228     2.1001    -0.1054 C.3     
  29 C29           -9.7457     1.1909    -0.2426 C.3     
  30 O30          -10.9220     1.9915    -0.3750 O.3     
  31 C31            2.7107     5.3300     1.0850 C.2     
  32 O32            4.0247     5.5881     0.9873 O.3     
  33 C33            4.6245     4.5143     0.4543 C.2     
  34 N34            3.7337     3.5970     0.2228 N.2     
  35 C35            6.0997     4.3885     0.1735 C.3     
  36 C36            6.7234     5.3973    -0.7931 C.3     
  37 C37            7.0167     5.4917     0.7056 C.3     
  38 C38            2.7835    -5.8445     0.0021 C.3     
  39 O39           -8.6146     2.8413     1.1128 O.3     
  40 H40           -1.1986    -1.7818    -0.0136 H       
  41 H41           -3.3385    -0.5777    -0.0409 H       
  42 H42           -1.2340     3.1625    -0.0211 H       
  43 H43            1.1884    -0.9264     2.0970 H       
  44 H44            0.5282    -2.2983     1.1742 H       
  45 H45            0.5942    -2.2346    -1.2720 H       
  46 H46            1.3013    -0.8174    -2.0852 H       
  47 H47            2.8646    -2.7572    -2.0936 H       
  48 H48            3.5249    -1.3853    -1.1708 H       
  49 H49            3.4588    -1.4490     1.2754 H       
  50 H50            2.7518    -2.8662     2.0886 H       
  51 H51           -4.8609     0.4366    -0.0602 H       
  52 H52            1.9919     1.7035    -0.3533 H       
  53 H53            5.2950    -6.8361     0.0301 H       
  54 H54            7.4148    -5.5865     0.0494 H       
  55 H55            7.3983    -3.1253     0.0423 H       
  56 H56            5.2605    -1.9068     0.0102 H       
  57 H57           -7.2273     0.6160    -0.9773 H       
  58 H58           -7.2473     0.6204     0.8026 H       
  59 H59           -8.4864     2.7899    -0.9486 H       
  60 H60           -9.6333     0.5616    -1.1255 H       
  61 H61           -9.8320     0.5619     0.6434 H       
  62 H62          -11.7375     1.4801    -0.4665 H       
  63 H63            1.9525     5.9933     1.4742 H       
  64 H64            6.4908     3.3711     0.1608 H       
  65 H65            7.5250     5.0436    -1.4415 H       
  66 H66            6.0666     6.1519    -1.2259 H       
  67 H67            6.5529     6.3084     1.2587 H       
  68 H68            8.0113     5.2002     1.0431 H       
  69 H69            2.4808    -6.0322    -1.0281 H       
  70 H70            2.9181    -6.7941     0.5200 H       
  71 H71            2.0131    -5.2615     0.5067 H       
  72 H72           -8.6510     2.2904     1.9067 H       
@<TRIPOS>BOND
   1    1    2 ar
   2    1   16 1
   3    1    6 ar
   4    2    3 ar
   5    2    7 1
   6    3    4 ar
   7    3   40 1
   8    4    5 ar
   9    4   41 1
  10    5    6 ar
  11    5   13 1
  12    6   42 1
  13    7    8 1
  14    7    9 1
  15    8   12 1
  16    8   43 1
  17    8   44 1
  18    9   10 1
  19    9   45 1
  20    9   46 1
  21   10   11 1
  22   10   47 1
  23   10   48 1
  24   11   12 1
  25   11   17 1
  26   12   49 1
  27   12   50 1
  28   13   14 2
  29   13   15 am
  30   15   26 1
  31   15   51 1
  32   16   18 am
  33   16   52 1
  34   17   20 ar
  35   17   25 ar
  36   18   19 1
  37   18   21 2
  38   19   31 2
  39   19   34 1
  40   20   22 ar
  41   20   38 1
  42   22   23 ar
  43   22   53 1
  44   23   24 ar
  45   23   54 1
  46   24   25 ar
  47   24   55 1
  48   25   56 1
  49   26   27 1
  50   27   28 1
  51   27   57 1
  52   27   58 1
  53   28   29 1
  54   28   39 1
  55   28   59 1
  56   29   30 1
  57   29   60 1
  58   29   61 1
  59   30   62 1
  60   31   32 1
  61   31   63 1
  62   32   33 1
  63   33   34 2
  64   33   35 1
  65   35   36 1
  66   35   37 1
  67   35   64 1
  68   36   37 1
  69   36   65 1
  70   36   66 1
  71   37   67 1
  72   37   68 1
  73   38   69 1
  74   38   70 1
  75   38   71 1
  76   39   72 1

#	End of record

