#	Name: ASD01812814
#	Creating user name:	WinNT
#	Creation time:	15. 06. 2019 19:29

#	Modifying user name:	WinNT
#	Modification time:	15. 06. 2019 19:29

#	Program:	/corina/corina34_cracker 3.40 0067  02.08.2006

@<TRIPOS>MOLECULE
ASD01812814
  52   55    0    0    0
SMALL
NO_CHARGES


@<TRIPOS>ATOM
   1 N1            -0.0158     1.3147     0.0093 N.ar    
   2 C2             0.0021    -0.0041     0.0020 C.ar    
   3 C3             1.1989    -0.7033    -0.0127 C.ar    
   4 C4             2.3829    -0.0013    -0.0202 C.ar    
   5 C5             2.3448     1.3978    -0.0128 C.ar    
   6 C6             1.0955     2.0332     0.0025 C.ar    
   7 C7             3.8373    -0.3889    -0.0363 C.3     
   8 N8             4.5955     0.8684    -0.0373 N.am    
   9 C9             3.7280     1.8961    -0.0237 C.2     
  10 C10            6.0558     0.9844    -0.0504 C.3     
  11 C11            6.5432     1.0311    -1.4757 C.ar    
  12 C12            6.4763     2.2162    -2.1897 C.ar    
  13 C13            6.9225     2.2630    -3.4976 C.ar    
  14 C14            7.4397     1.1164    -4.0951 C.ar    
  15 C15            7.5046    -0.0724    -3.3711 C.ar    
  16 C16            7.0612    -0.1080    -2.0646 C.ar    
  17 O17            1.0255     3.3856     0.0100 O.3     
  18 O18            4.0429     3.0706    -0.0212 O.2     
  19 C19            7.9199     1.1603    -5.4991 C.2     
  20 C20            8.4438     0.1257    -6.2189 C.2     
  21 N21            7.9207     2.2262    -6.3195 N.2     
  22 N22            8.4129     1.8747    -7.4546 N.2     
  23 N23            8.7329     0.6287    -7.4402 N.pl3   
  24 C24            9.3181    -0.1177    -8.5567 C.3     
  25 C25           -0.2795     3.9677     0.0251 C.3     
  26 F26            5.9741     3.3272    -1.6078 F       
  27 C27           -0.3384     5.3295     0.7371 C.3     
  28 C28           -1.2948     5.7829    -0.3785 C.3     
  29 C29           -0.6345     4.7177    -1.2696 C.3     
  30 H30           -0.9309    -0.5480     0.0080 H       
  31 H31            1.2023    -1.7833    -0.0178 H       
  32 H32            4.0797    -0.9721     0.8522 H       
  33 H33            4.0624    -0.9631    -0.9351 H       
  34 H34            6.3524     1.8979     0.4651 H       
  35 H35            6.4932     0.1235     0.4552 H       
  36 H36            6.8697     3.1868    -4.0547 H       
  37 H37            7.9050    -0.9640    -3.8306 H       
  38 H38            7.1153    -1.0284    -1.5021 H       
  39 H39            8.5967    -0.8887    -5.8813 H       
  40 H40            8.5214    -0.5534    -9.1597 H       
  41 H41            9.9126     0.5569    -9.1728 H       
  42 H42            9.9556    -0.9120    -8.1683 H       
  43 H43           -1.0503     3.2701     0.3526 H       
  44 H44           -0.8044     5.2877     1.7216 H       
  45 H45            0.6126     5.8621     0.7402 H       
  46 H46           -2.3441     5.5821    -0.1624 H       
  47 H47           -1.1191     6.8044    -0.7158 H       
  48 H48            0.2355     5.0830    -1.8152 H       
  49 H49           -1.3396     4.1820    -1.9052 H       
  50 O50           14.9556    12.7713     6.7278 O.3     
  51 H51           14.9687    11.8044     6.7225 H       
  52 H52           15.8335    13.1766     6.7216 H       
@<TRIPOS>BOND
   1    1    2 ar
   2    1    6 ar
   3    2    3 ar
   4    2   30 1
   5    3    4 ar
   6    3   31 1
   7    4    7 1
   8    4    5 ar
   9    5    6 ar
  10    5    9 1
  11    6   17 1
  12    7    8 1
  13    7   32 1
  14    7   33 1
  15    8    9 am
  16    8   10 1
  17    9   18 2
  18   10   11 1
  19   10   34 1
  20   10   35 1
  21   11   12 ar
  22   11   16 ar
  23   12   13 ar
  24   12   26 1
  25   13   14 ar
  26   13   36 1
  27   14   15 ar
  28   14   19 1
  29   15   16 ar
  30   15   37 1
  31   16   38 1
  32   17   25 1
  33   19   21 1
  34   19   20 2
  35   20   23 1
  36   20   39 1
  37   21   22 2
  38   22   23 1
  39   23   24 1
  40   24   40 1
  41   24   41 1
  42   24   42 1
  43   25   27 1
  44   25   29 1
  45   25   43 1
  46   27   28 1
  47   27   44 1
  48   27   45 1
  49   28   29 1
  50   28   46 1
  51   28   47 1
  52   29   48 1
  53   29   49 1
  54   50   51 1
  55   50   52 1

#	End of record

