#	Name: ASD02500583
#	Creating user name:	WinNT
#	Creation time:	15. 06. 2019 20:23

#	Modifying user name:	WinNT
#	Modification time:	15. 06. 2019 20:23

#	Program:	/corina/corina34_cracker 3.40 0067  02.08.2006

@<TRIPOS>MOLECULE
ASD02500583
  67   71    0    0    0
SMALL
NO_CHARGES


@<TRIPOS>ATOM
   1 N1            -3.3518     5.5872    -0.4781 N.ar    
   2 C2            -4.4733     6.2293    -0.6980 C.ar    
   3 C3            -5.5854     6.0657     0.1253 C.ar    
   4 C4            -5.5235     5.2175     1.1940 C.ar    
   5 C5            -4.3177     4.5293     1.4267 C.ar    
   6 C6            -4.1790     3.6416     2.5054 C.ar    
   7 C7            -2.9959     2.9951     2.6970 C.ar    
   8 C8            -1.9201     3.2032     1.8366 C.ar    
   9 C9            -2.0198     4.0566     0.7811 C.ar    
  10 C10           -3.2248     4.7425     0.5502 C.ar    
  11 S11           -0.6433     4.3017    -0.2912 S.o2    
  12 O12           -0.4775     5.7074    -0.4166 O.2     
  13 O13            0.3845     3.4361     0.1710 O.2     
  14 N14           -1.0834     3.7473    -1.7883 N.am    
  15 C15           -1.3114     2.3902    -1.9878 C.ar    
  16 C16           -0.9836     1.8025    -3.2068 C.ar    
  17 C17           -1.2080     0.4600    -3.4073 C.ar    
  18 C18           -1.7658    -0.3143    -2.3854 C.ar    
  19 C19           -2.0937     0.2786    -1.1629 C.ar    
  20 C20           -1.8615     1.6209    -0.9665 C.ar    
  21 C21           -2.0081    -1.7540    -2.5973 C.2     
  22 O22           -2.4407    -2.1473    -3.6634 O.2     
  23 N23           -1.7500    -2.6334    -1.6090 N.am    
  24 C24           -1.8932    -4.0804    -1.8298 C.3     
  25 C25           -0.6036    -4.7721    -1.3752 C.3     
  26 N26           -0.3039    -4.3815     0.0088 N.3     
  27 C27           -0.0508    -2.9382     0.1123 C.3     
  28 C28           -1.3119    -2.1717    -0.2831 C.3     
  29 C29            0.8270    -5.1537     0.5406 C.3     
  30 C30            1.2253    -4.5981     1.9093 C.3     
  31 C31            0.4256    -6.5993     0.6827 C.ar    
  32 C32            1.3404    -7.6003     0.4141 C.ar    
  33 C33            0.9722    -8.9263     0.5445 C.ar    
  34 C34           -0.3106    -9.2513     0.9439 C.ar    
  35 C35           -1.2251    -8.2504     1.2134 C.ar    
  36 C36           -0.8556    -6.9243     1.0872 C.ar    
  37 C37           -0.3830     2.6379    -4.3079 C.3     
  38 H38           -4.5368     6.9034    -1.5394 H       
  39 H39           -6.4955     6.6093    -0.0813 H       
  40 H40           -6.3758     5.0789     1.8426 H       
  41 H41           -5.0056     3.4726     3.1796 H       
  42 H42           -2.8900     2.3124     3.5271 H       
  43 H43           -0.9919     2.6790     2.0102 H       
  44 H44           -1.1821     4.3693    -2.5261 H       
  45 H45           -0.9540     0.0047    -4.3531 H       
  46 H46           -2.5246    -0.3169    -0.3716 H       
  47 H47           -2.1102     2.0787    -0.0205 H       
  48 H48           -2.7352    -4.4578    -1.2495 H       
  49 H49           -2.0589    -4.2745    -2.8895 H       
  50 H50           -0.7325    -5.8532    -1.4283 H       
  51 H51            0.2188    -4.4712    -2.0243 H       
  52 H52            0.2211    -2.6893     1.1381 H       
  53 H53            0.7638    -2.6628    -0.5574 H       
  54 H54           -1.0935    -1.1045    -0.3207 H       
  55 H55           -2.0970    -2.3620     0.4487 H       
  56 H56            1.6727    -5.0770    -0.1428 H       
  57 H57            2.0644    -5.1710     2.3039 H       
  58 H58            1.5156    -3.5525     1.8065 H       
  59 H59            0.3796    -4.6748     2.5927 H       
  60 H60            2.3427    -7.3463     0.1021 H       
  61 H61            1.6867    -9.7083     0.3339 H       
  62 H62           -0.5985   -10.2873     1.0450 H       
  63 H63           -2.2275    -8.5043     1.5251 H       
  64 H64           -1.5690    -6.1422     1.3013 H       
  65 H65            0.7034     2.6294    -4.2190 H       
  66 H66           -0.6717     2.2263    -5.2750 H       
  67 H67           -0.7462     3.6624    -4.2260 H       
@<TRIPOS>BOND
   1    1    2 ar
   2    1   10 ar
   3    2    3 ar
   4    2   38 1
   5    3    4 ar
   6    3   39 1
   7    4    5 ar
   8    4   40 1
   9    5    6 ar
  10    5   10 ar
  11    6    7 ar
  12    6   41 1
  13    7    8 ar
  14    7   42 1
  15    8    9 ar
  16    8   43 1
  17    9   10 ar
  18    9   11 1
  19   11   12 2
  20   11   13 2
  21   11   14 am
  22   14   15 1
  23   14   44 1
  24   15   16 ar
  25   15   20 ar
  26   16   17 ar
  27   16   37 1
  28   17   18 ar
  29   17   45 1
  30   18   19 ar
  31   18   21 1
  32   19   20 ar
  33   19   46 1
  34   20   47 1
  35   21   22 2
  36   21   23 am
  37   23   24 1
  38   23   28 1
  39   24   25 1
  40   24   48 1
  41   24   49 1
  42   25   26 1
  43   25   50 1
  44   25   51 1
  45   26   27 1
  46   26   29 1
  47   27   28 1
  48   27   52 1
  49   27   53 1
  50   28   54 1
  51   28   55 1
  52   29   30 1
  53   29   31 1
  54   29   56 1
  55   30   57 1
  56   30   58 1
  57   30   59 1
  58   31   32 ar
  59   31   36 ar
  60   32   33 ar
  61   32   60 1
  62   33   34 ar
  63   33   61 1
  64   34   35 ar
  65   34   62 1
  66   35   36 ar
  67   35   63 1
  68   36   64 1
  69   37   65 1
  70   37   66 1
  71   37   67 1

#	End of record

