#	Name: ASD01914027
#	Creating user name:	WinNT
#	Creation time:	15. 06. 2019 20:02

#	Modifying user name:	WinNT
#	Modification time:	15. 06. 2019 20:02

#	Program:	/corina/corina34_cracker 3.40 0067  02.08.2006

@<TRIPOS>MOLECULE
ASD01914027
  50   52    0    0    0
SMALL
NO_CHARGES


@<TRIPOS>ATOM
   1 C1            -0.0158     1.3154     0.0093 C.ar    
   2 N2             0.0021    -0.0041     0.0020 N.ar    
   3 C3             1.1321    -0.6854    -0.0124 C.ar    
   4 C4             2.3736     1.3568    -0.0133 C.ar    
   5 C5             1.1593     2.0384     0.0019 C.ar    
   6 O6             3.5509     2.0323    -0.0214 O.3     
   7 C7             4.7472     1.2509    -0.0369 C.3     
   8 C8             5.9447     2.1657    -0.0440 C.ar    
   9 N9             7.1576     1.6468    -0.0584 N.ar    
  10 C10            8.2369     2.4014    -0.0651 C.ar    
  11 C11            8.1302     3.7925    -0.0566 C.ar    
  12 C12            6.8560     4.3729    -0.0413 C.ar    
  13 C13            5.7542     3.5361    -0.0409 C.ar    
  14 C14            9.3419     4.6394    -0.0631 C.2     
  15 N15           10.5628     4.0687    -0.0774 N.am    
  16 O16            9.2371     5.8503    -0.0556 O.2     
  17 C17           11.7636     4.9079    -0.0839 C.3     
  18 C18            2.3493    -0.0357    -0.0205 C.ar    
  19 C19           12.9361     4.1252     0.5108 C.3     
  20 C20           12.0964     5.3109    -1.5219 C.3     
  21 C21           14.1901     5.0017     0.5040 C.3     
  22 C22           15.3626     4.2190     1.0986 C.3     
  23 C23           15.0298     3.8160     2.5366 C.3     
  24 C24           13.7757     2.9396     2.5434 C.3     
  25 C25           12.6033     3.7223     1.9487 C.3     
  26 H26           -0.9621     1.8359     0.0166 H       
  27 H27            1.1039    -1.7650    -0.0176 H       
  28 H28            1.1377     3.1182     0.0083 H       
  29 H29            4.7790     0.6176     0.8496 H       
  30 H30            4.7617     0.6265    -0.9302 H       
  31 H31            9.2130     1.9394    -0.0769 H       
  32 H32            6.7363     5.4463    -0.0343 H       
  33 H33            4.7560     3.9482    -0.0293 H       
  34 H34           10.6465     3.1023    -0.0834 H       
  35 H35           11.5847     5.8029     0.5120 H       
  36 H36            3.2705    -0.5992    -0.0320 H       
  37 H37           13.1150     3.2303    -0.0852 H       
  38 H38           12.2754     4.4159    -2.1178 H       
  39 H39           11.2612     5.8685    -1.9455 H       
  40 H40           12.9899     5.9353    -1.5267 H       
  41 H41           14.4273     5.2887    -0.5205 H       
  42 H42           14.0112     5.8966     1.0999 H       
  43 H43           15.5416     3.3240     0.5027 H       
  44 H44           16.2560     4.8434     1.0938 H       
  45 H45           15.8651     3.2584     2.9603 H       
  46 H46           14.8508     4.7110     3.1326 H       
  47 H47           13.9547     2.0446     1.9474 H       
  48 H48           13.5386     2.6525     3.5678 H       
  49 H49           12.4243     4.6172     2.5447 H       
  50 H50           11.7098     3.0979     1.9536 H       
@<TRIPOS>BOND
   1    1    2 ar
   2    1    5 ar
   3    1   26 1
   4    2    3 ar
   5    3   18 ar
   6    3   27 1
   7    4    5 ar
   8    4    6 1
   9    4   18 ar
  10    5   28 1
  11    6    7 1
  12    7    8 1
  13    7   29 1
  14    7   30 1
  15    8    9 ar
  16    8   13 ar
  17    9   10 ar
  18   10   11 ar
  19   10   31 1
  20   11   12 ar
  21   11   14 1
  22   12   13 ar
  23   12   32 1
  24   13   33 1
  25   14   15 am
  26   14   16 2
  27   15   17 1
  28   15   34 1
  29   17   19 1
  30   17   20 1
  31   17   35 1
  32   18   36 1
  33   19   21 1
  34   19   25 1
  35   19   37 1
  36   20   38 1
  37   20   39 1
  38   20   40 1
  39   21   22 1
  40   21   41 1
  41   21   42 1
  42   22   23 1
  43   22   43 1
  44   22   44 1
  45   23   24 1
  46   23   45 1
  47   23   46 1
  48   24   25 1
  49   24   47 1
  50   24   48 1
  51   25   49 1
  52   25   50 1

#	End of record

