#	Name: ASD07930787
#	Creating user name:	WinNT
#	Creation time:	15. 06. 2019 21:13

#	Modifying user name:	WinNT
#	Modification time:	15. 06. 2019 21:13

#	Program:	/corina/corina34_cracker 3.40 0067  02.08.2006

@<TRIPOS>MOLECULE
ASD07930787
  53   55    0    0    0
SMALL
NO_CHARGES


@<TRIPOS>ATOM
   1 C1            -0.0343     1.4581     0.0425 C.3     
   2 N2             0.7953    -0.4134    -2.1302 N.2     
   3 N3            -0.8904    -1.7835    -1.2685 N.pl3   
   4 C4            -0.9150    -2.8271    -0.2382 C.3     
   5 C5            -1.2300    -2.1885     1.1215 C.3     
   6 S6             0.0061    -0.8913     1.4435 S.o2    
   7 N7            -0.0141    -0.0067     0.0315 N.am    
   8 C8            -0.0113    -0.7260    -1.1551 C.2     
   9 C9             0.4500    -3.5153    -0.1755 C.3     
  10 C10           -1.9765    -3.8423    -0.5755 C.ar    
  11 C11           -2.8068    -3.6380    -1.6597 C.ar    
  12 C12           -3.7847    -4.5742    -1.9704 C.ar    
  13 C13           -3.9250    -5.7138    -1.1896 C.ar    
  14 C14           -3.0923    -5.9141    -0.1059 C.ar    
  15 C15           -2.1147    -4.9822     0.1989 C.ar    
  16 O16           -0.4577     0.0117     2.4378 O.2     
  17 O17            1.3140    -1.4440     1.5004 O.2     
  18 N18           -4.6276    -4.3690    -3.0685 N.am    
  19 C19           -5.0472    -5.4193    -3.8015 C.2     
  20 C20           -6.0282    -5.2179    -4.8853 C.ar    
  21 O21           -4.6173    -6.5330    -3.5697 O.2     
  22 N22           -6.4943    -3.9982    -5.1338 N.ar    
  23 C23           -7.3673    -3.7737    -6.0881 C.ar    
  24 C24           -7.8431    -4.8142    -6.8844 C.ar    
  25 C25           -7.3842    -6.1065    -6.6614 C.ar    
  26 C26           -6.4560    -6.3129    -5.6473 C.ar    
  27 F27           -1.3013    -5.1800     1.2593 F       
  28 O28           -8.7460    -4.5674    -7.8673 O.3     
  29 C29           -9.1696    -3.2128    -8.0339 C.3     
  30 O30           -5.9790    -7.5571    -5.3931 O.3     
  31 C31           -6.4738    -8.6208    -6.2090 C.3     
  32 H32            0.9882     1.8356     0.0394 H       
  33 H33           -0.5582     1.8209    -0.8419 H       
  34 H34           -0.5480     1.8077     0.9380 H       
  35 H35            1.4070     0.3331    -2.0331 H       
  36 H36           -1.4883    -1.8387    -2.0303 H       
  37 H37           -2.2270    -1.7484     1.0987 H       
  38 H38           -1.1800    -2.9460     1.9037 H       
  39 H39            1.2165    -2.7804     0.0705 H       
  40 H40            0.4311    -4.2908     0.5903 H       
  41 H41            0.6749    -3.9652    -1.1425 H       
  42 H42           -2.6962    -2.7508    -2.2655 H       
  43 H43           -4.6849    -6.4428    -1.4292 H       
  44 H44           -3.2011    -6.8004     0.5017 H       
  45 H45           -4.9098    -3.4709    -3.3021 H       
  46 H46           -7.7223    -2.7680    -6.2586 H       
  47 H47           -7.7369    -6.9303    -7.2642 H       
  48 H48           -9.6358    -2.8620    -7.1132 H       
  49 H49           -8.3068    -2.5882    -8.2652 H       
  50 H50           -9.8893    -3.1551    -8.8505 H       
  51 H51           -7.5554    -8.6929    -6.0954 H       
  52 H52           -6.2306    -8.4215    -7.2527 H       
  53 H53           -6.0127    -9.5593    -5.9014 H       
@<TRIPOS>BOND
   1    1    7 1
   2    1   32 1
   3    1   33 1
   4    1   34 1
   5    2    8 2
   6    2   35 1
   7    3    4 1
   8    3    8 1
   9    3   36 1
  10    4    5 1
  11    4    9 1
  12    4   10 1
  13    5    6 1
  14    5   37 1
  15    5   38 1
  16    6    7 am
  17    6   16 2
  18    6   17 2
  19    7    8 1
  20    9   39 1
  21    9   40 1
  22    9   41 1
  23   10   11 ar
  24   10   15 ar
  25   11   12 ar
  26   11   42 1
  27   12   13 ar
  28   12   18 1
  29   13   14 ar
  30   13   43 1
  31   14   15 ar
  32   14   44 1
  33   15   27 1
  34   18   19 am
  35   18   45 1
  36   19   20 1
  37   19   21 2
  38   20   22 ar
  39   20   26 ar
  40   22   23 ar
  41   23   24 ar
  42   23   46 1
  43   24   25 ar
  44   24   28 1
  45   25   26 ar
  46   25   47 1
  47   26   30 1
  48   28   29 1
  49   29   48 1
  50   29   49 1
  51   29   50 1
  52   30   31 1
  53   31   51 1
  54   31   52 1
  55   31   53 1

#	End of record

