#	Name: ASD03910056
#	Creating user name:	WinNT
#	Creation time:	15. 06. 2019 20:47

#	Modifying user name:	WinNT
#	Modification time:	15. 06. 2019 20:47

#	Program:	/corina/corina34_cracker 3.40 0067  02.08.2006

@<TRIPOS>MOLECULE
ASD03910056
  72   75    0    0    0
SMALL
NO_CHARGES


@<TRIPOS>ATOM
   1 C1            -1.1805    17.4451    -4.8200 C.ar    
   2 C2            -0.2557    18.4680    -4.9240 C.ar    
   3 C3             1.0728    18.2367    -4.6177 C.ar    
   4 C4             1.4802    16.9824    -4.2072 C.ar    
   5 C5             0.5539    15.9531    -4.1018 C.ar    
   6 C6            -0.7806    16.1902    -4.4043 C.ar    
   7 N7             0.9633    14.6813    -3.6863 N.am    
   8 C8             0.1286    13.9067    -2.9655 C.2     
   9 O9            -0.9387    14.3472    -2.5942 O.2     
  10 C10           -0.5777    11.8485    -1.8161 C.ar    
  11 C11           -1.5932    11.1644    -2.4585 C.ar    
  12 C12           -2.5987    10.5677    -1.7228 C.ar    
  13 C13           -2.5890    10.6553    -0.3382 C.ar    
  14 C14           -1.5690    11.3422     0.3039 C.ar    
  15 C15           -0.5658    11.9372    -0.4364 C.ar    
  16 O16           -3.5773    10.0695     0.3877 O.3     
  17 C17           -3.4998    10.1951     1.8091 C.3     
  18 C18           -2.2619     9.5049     2.3212 C.2     
  19 C19           -2.6272    17.7016    -5.1548 C.3     
  20 C20            2.0773    19.3542    -4.7323 C.3     
  21 O21           -1.5865     8.8344     1.5694 O.2     
  22 N22           -1.9054     9.6326     3.6147 N.am    
  23 C23            0.5213    12.4931    -2.6208 C.3     
  24 C24           -0.7602     8.8825     4.1364 C.3     
  25 C25           -1.2023     7.4941     4.5211 C.2     
  26 O26           -2.3556     7.1650     4.3745 O.2     
  27 O27           -0.3149     6.6231     5.0266 O.3     
  28 C28           -0.1994     9.5984     5.3667 C.3     
  29 C29           -3.4770    11.6815     2.2064 C.3     
  30 C30           -4.7202    11.9212     3.0878 C.3     
  31 C31           -5.0568    10.5211     3.6584 C.3     
  32 C32           -4.7554     9.5823     2.4630 C.3     
  33 C33            0.3909    10.9216     4.9524 C.ar    
  34 C34           -0.4102    12.0464     4.8894 C.ar    
  35 C35            0.1312    13.2602     4.5092 C.ar    
  36 C36            1.4739    13.3493     4.1925 C.ar    
  37 C37            2.2752    12.2247     4.2564 C.ar    
  38 C38            1.7347    11.0118     4.6407 C.ar    
  39 H39           -0.5716    19.4494    -5.2454 H       
  40 H40            2.5180    16.8022    -3.9688 H       
  41 H41           -1.5034    15.3919    -4.3230 H       
  42 H42            1.8480    14.3571    -3.9170 H       
  43 H43           -1.6005    11.0969    -3.5363 H       
  44 H44           -3.3919    10.0339    -2.2250 H       
  45 H45           -1.5594    11.4120     1.3816 H       
  46 H46            0.2285    12.4720     0.0631 H       
  47 H47           -2.7963    17.5016    -6.2129 H       
  48 H48           -3.2604    17.0472    -4.5557 H       
  49 H49           -2.8715    18.7416    -4.9381 H       
  50 H50            2.1397    19.8855    -3.7826 H       
  51 H51            3.0543    18.9404    -4.9821 H       
  52 H52            1.7644    20.0451    -5.5152 H       
  53 H53           -2.4070    10.2212     4.2001 H       
  54 H54            0.6803    11.9263    -3.5382 H       
  55 H55            1.4412    12.5039    -2.0363 H       
  56 H56            0.0120     8.8186     3.3697 H       
  57 H57           -0.6454     5.7445     5.2585 H       
  58 H58           -1.0010     9.7673     6.0857 H       
  59 H59            0.5749     8.9824     5.8240 H       
  60 H60           -2.5710    11.9034     2.7703 H       
  61 H61           -3.5251    12.3071     1.3150 H       
  62 H62           -4.4875    12.6161     3.8947 H       
  63 H63           -5.5477    12.2970     2.4861 H       
  64 H64           -4.4138    10.2847     4.5062 H       
  65 H65           -6.1079    10.4617     3.9411 H       
  66 H66           -5.5885     9.5801     1.7601 H       
  67 H67           -4.5490     8.5713     2.8145 H       
  68 H68           -1.4592    11.9768     5.1368 H       
  69 H69           -0.4948    14.1388     4.4594 H       
  70 H70            1.8967    14.2974     3.8949 H       
  71 H71            3.3241    12.2942     4.0086 H       
  72 H72            2.3607    10.1332     4.6906 H       
@<TRIPOS>BOND
   1    1    2 ar
   2    1   19 1
   3    1    6 ar
   4    2    3 ar
   5    2   39 1
   6    3    4 ar
   7    3   20 1
   8    4    5 ar
   9    4   40 1
  10    5    6 ar
  11    5    7 1
  12    6   41 1
  13    7    8 am
  14    7   42 1
  15    8    9 2
  16    8   23 1
  17   10   11 ar
  18   10   15 ar
  19   10   23 1
  20   11   12 ar
  21   11   43 1
  22   12   13 ar
  23   12   44 1
  24   13   14 ar
  25   13   16 1
  26   14   15 ar
  27   14   45 1
  28   15   46 1
  29   16   17 1
  30   17   18 1
  31   17   29 1
  32   17   32 1
  33   18   21 2
  34   18   22 am
  35   19   47 1
  36   19   48 1
  37   19   49 1
  38   20   50 1
  39   20   51 1
  40   20   52 1
  41   22   24 1
  42   22   53 1
  43   23   54 1
  44   23   55 1
  45   24   25 1
  46   24   28 1
  47   24   56 1
  48   25   26 2
  49   25   27 1
  50   27   57 1
  51   28   33 1
  52   28   58 1
  53   28   59 1
  54   29   30 1
  55   29   60 1
  56   29   61 1
  57   30   31 1
  58   30   62 1
  59   30   63 1
  60   31   32 1
  61   31   64 1
  62   31   65 1
  63   32   66 1
  64   32   67 1
  65   33   34 ar
  66   33   38 ar
  67   34   35 ar
  68   34   68 1
  69   35   36 ar
  70   35   69 1
  71   36   37 ar
  72   36   70 1
  73   37   38 ar
  74   37   71 1
  75   38   72 1

#	End of record

