#	Name: ASD01148080
#	Creating user name:	WinNT
#	Creation time:	15. 06. 2019 19:02

#	Modifying user name:	WinNT
#	Modification time:	15. 06. 2019 19:02

#	Program:	/corina/corina34_cracker 3.40 0067  02.08.2006

@<TRIPOS>MOLECULE
ASD01148080
  33   33    0    0    0
SMALL
NO_CHARGES


@<TRIPOS>ATOM
   1 C1            -0.0184     1.5028     0.0103 C.2     
   2 C2             0.0021    -0.0041     0.0020 C.3     
   3 C3            -0.2279    -0.5251     1.4221 C.3     
   4 O4             1.0236     2.1234     0.0037 O.2     
   5 N5            -1.1946     2.1607     0.0195 N.am    
   6 O6            -0.3247    -1.9505     1.3966 O.3     
   7 C7            -0.5409    -2.5414     2.6797 C.3     
   8 F8             0.5221    -2.2149     3.5286 F       
   9 F9            -1.7361    -2.0561     3.2211 F       
  10 C10           -1.2145     3.6256     0.0275 C.3     
  11 N11            1.3019    -0.4721    -0.4853 N.am    
  12 C12            2.4293    -0.1348     0.1718 C.2     
  13 O13            2.3676     0.5562     1.1666 O.2     
  14 C14            3.7664    -0.6163    -0.3296 C.3     
  15 C15           -2.6419     4.1085     0.0369 C.2     
  16 C16           -3.3417     4.3408     1.2085 C.2     
  17 C17           -4.5947     4.7659     1.0399 C.2     
  18 S18           -4.9484     4.8927    -0.6784 S.3     
  19 C19           -3.3250     4.3500    -1.0830 C.2     
  20 H20           -0.7864    -0.3745    -0.6531 H       
  21 H21            0.6068    -0.2288     2.0574 H       
  22 H22           -1.1526    -0.1051     1.8179 H       
  23 H23           -2.0280     1.6644     0.0207 H       
  24 H24           -0.6028    -3.6246     2.5751 H       
  25 H25           -0.7014     3.9910     0.9171 H       
  26 H26           -0.7098     4.0007    -0.8628 H       
  27 H27            1.3512    -1.0248    -1.2810 H       
  28 H28            3.6226    -1.2190    -1.2264 H       
  29 H29            4.3963     0.2414    -0.5653 H       
  30 H30            4.2473    -1.2197     0.4404 H       
  31 H31           -2.9062     4.1890     2.1850 H       
  32 H32           -5.2865     4.9964     1.8366 H       
  33 H33           -2.9417     4.2261    -2.0851 H       
@<TRIPOS>BOND
   1    1    2 1
   2    1    4 2
   3    1    5 am
   4    2    3 1
   5    2   11 1
   6    2   20 1
   7    3    6 1
   8    3   21 1
   9    3   22 1
  10    5   10 1
  11    5   23 1
  12    6    7 1
  13    7    8 1
  14    7    9 1
  15    7   24 1
  16   10   15 1
  17   10   25 1
  18   10   26 1
  19   11   12 am
  20   11   27 1
  21   12   13 2
  22   12   14 1
  23   14   28 1
  24   14   29 1
  25   14   30 1
  26   15   16 1
  27   15   19 2
  28   16   17 2
  29   16   31 1
  30   17   18 1
  31   17   32 1
  32   18   19 1
  33   19   33 1

#	End of record

