#	Name: ASD03731253
#	Creating user name:	WinNT
#	Creation time:	15. 06. 2019 20:45

#	Modifying user name:	WinNT
#	Modification time:	15. 06. 2019 20:45

#	Program:	/corina/corina34_cracker 3.40 0067  02.08.2006

@<TRIPOS>MOLECULE
ASD03731253
  57   62    0    0    0
SMALL
NO_CHARGES


@<TRIPOS>ATOM
   1 N1            -0.0173     1.3441     0.0192 N.am    
   2 C2             0.0015    -0.0032    -0.0085 C.2     
   3 O3             1.0624    -0.5958    -0.0496 O.2     
   4 N4            -1.1558    -0.6938     0.0094 N.am    
   5 C5            -1.1402    -2.0885    -0.1039 C.ar    
   6 C6            -2.2454    -2.7577    -0.6134 C.ar    
   7 C7            -2.2267    -4.1341    -0.7244 C.ar    
   8 C8            -1.1090    -4.8461    -0.3287 C.ar    
   9 C9            -0.0072    -4.1828     0.1789 C.ar    
  10 C10           -0.0176    -2.8058     0.2875 C.ar    
  11 C11           -3.4640    -1.9828    -1.0443 C.3     
  12 F12           -4.4368    -2.8693    -1.5185 F       
  13 F13           -3.9738    -1.2710     0.0469 F       
  14 F14           -3.1124    -1.0886    -2.0612 F       
  15 C15            1.2407     2.0947    -0.0002 C.3     
  16 C16            0.9403     3.5945     0.0383 C.3     
  17 O17            7.5713     2.1161    -2.3146 O.3     
  18 C18            8.9393     2.4727    -2.5874 C.3     
  19 O19            8.8499     3.8241    -3.0761 O.3     
  20 C20            7.7218     4.3443    -2.5090 C.ar    
  21 C21            6.9355     3.2935    -2.0418 C.ar    
  22 C22            7.2957     5.6507    -2.3500 C.ar    
  23 C23            6.0824     5.9257    -1.7264 C.ar    
  24 C24            5.3018     4.8674    -1.2714 C.ar    
  25 C25            5.7267     3.5639    -1.4229 C.ar    
  26 O26            5.4929     7.1258    -1.4571 O.3     
  27 C27            4.0583     5.4751    -0.6794 C.3     
  28 C28            4.0908     6.9190    -1.1985 C.3     
  29 N29            2.1983     4.3451     0.0188 N.am    
  30 C30            2.8134     4.7536    -1.1089 C.2     
  31 C31            4.0535     5.4192     0.8195 C.ar    
  32 C32            4.9064     5.8914     1.7919 C.ar    
  33 C33            4.6208     5.6760     3.1284 C.ar    
  34 C34            3.4771     4.9848     3.4850 C.ar    
  35 C35            2.6202     4.5090     2.5146 C.ar    
  36 C36            2.8995     4.7215     1.1669 C.ar    
  37 O37            2.4353     4.5740    -2.2472 O.2     
  38 H38           -0.8638     1.8169     0.0479 H       
  39 H39           -1.9995    -0.2240     0.1007 H       
  40 H40           -3.0860    -4.6551    -1.1201 H       
  41 H41           -1.0969    -5.9225    -0.4162 H       
  42 H42            0.8642    -4.7416     0.4869 H       
  43 H43            0.8449    -2.2879     0.6802 H       
  44 H44            1.8401     1.8218     0.8683 H       
  45 H45            1.7912     1.8577    -0.9106 H       
  46 H46            0.3409     3.8674    -0.8303 H       
  47 H47            0.3898     3.8315     0.9487 H       
  48 H48            9.5343     2.4341    -1.6750 H       
  49 H49            9.3614     1.8172    -3.3491 H       
  50 H50            7.9088     6.4627    -2.7123 H       
  51 H51            5.1148     2.7521    -1.0581 H       
  52 H52            3.7312     7.6120    -0.4378 H       
  53 H53            3.5098     7.0138    -2.1158 H       
  54 H54            5.7990     6.4307     1.5111 H       
  55 H55            5.2891     6.0470     3.8913 H       
  56 H56            3.2542     4.8165     4.5283 H       
  57 H57            1.7293     3.9696     2.8010 H       
@<TRIPOS>BOND
   1    1    2 am
   2    1   15 1
   3    1   38 1
   4    2    3 2
   5    2    4 am
   6    4    5 1
   7    4   39 1
   8    5    6 ar
   9    5   10 ar
  10    6    7 ar
  11    6   11 1
  12    7    8 ar
  13    7   40 1
  14    8    9 ar
  15    8   41 1
  16    9   10 ar
  17    9   42 1
  18   10   43 1
  19   11   12 1
  20   11   13 1
  21   11   14 1
  22   15   16 1
  23   15   44 1
  24   15   45 1
  25   16   29 1
  26   16   46 1
  27   16   47 1
  28   17   18 1
  29   17   21 1
  30   18   19 1
  31   18   48 1
  32   18   49 1
  33   19   20 1
  34   20   21 ar
  35   20   22 ar
  36   21   25 ar
  37   22   23 ar
  38   22   50 1
  39   23   24 ar
  40   23   26 1
  41   24   25 ar
  42   24   27 1
  43   25   51 1
  44   26   28 1
  45   27   28 1
  46   27   30 1
  47   27   31 1
  48   28   52 1
  49   28   53 1
  50   29   30 am
  51   29   36 1
  52   30   37 2
  53   31   32 ar
  54   31   36 ar
  55   32   33 ar
  56   32   54 1
  57   33   34 ar
  58   33   55 1
  59   34   35 ar
  60   34   56 1
  61   35   36 ar
  62   35   57 1

#	End of record

