#	Name: ASD01948088
#	Creating user name:	WinNT
#	Creation time:	15. 06. 2019 20:13

#	Modifying user name:	WinNT
#	Modification time:	15. 06. 2019 20:13

#	Program:	/corina/corina34_cracker 3.40 0067  02.08.2006

@<TRIPOS>MOLECULE
ASD01948088
  45   47    0    0    0
SMALL
NO_CHARGES


@<TRIPOS>ATOM
   1 N1            -2.6455     1.8477    -0.8064 N.am    
   2 C2            -2.0874     2.5280    -1.9776 C.3     
   3 C3            -4.0280     1.3637    -0.8300 C.3     
   4 S4            -1.7113     1.6196     0.5419 S.o2    
   5 O5            -2.1961     0.4415     1.1714 O.2     
   6 O6            -0.3618     1.7800     0.1268 O.2     
   7 N7            -2.0334     2.8702     1.5786 N.am    
   8 C8             0.1078     3.9906     1.6875 C.2     
   9 C9            -0.9905     3.4481     2.3318 C.2     
  10 C10           -1.0689     3.4722     3.7314 C.2     
  11 C11           -0.0197     4.0518     4.4375 C.2     
  12 C12            1.0579     4.5815     3.7496 C.2     
  13 N13            1.1297     4.5552     2.3853 N.am    
  14 S14            0.4391     4.0751    -0.0495 S.3     
  15 C15            2.2379     5.0964     1.5993 C.3     
  16 C16            2.0401     4.9217     0.0961 C.3     
  17 O17            1.9735     5.0881     4.3818 O.2     
  18 C18           -0.0567     4.1029     5.9431 C.3     
  19 N19           -2.1626     2.9334     4.3937 N.pl3   
  20 C20           -2.3841     1.5522     4.3699 C.ar    
  21 C21           -3.5555     1.0246     4.9037 C.ar    
  22 C22           -3.7707    -0.3407     4.8777 C.ar    
  23 C23           -2.8221    -1.1811     4.3220 C.ar    
  24 C24           -1.6571    -0.6586     3.7909 C.ar    
  25 C25           -1.4381     0.7056     3.8084 C.ar    
  26 I26           -3.1514    -3.2498     4.2858 I       
  27 F27           -4.4811     1.8451     5.4470 F       
  28 H28           -2.8429     2.5803    -2.7617 H       
  29 H29           -1.7813     3.5367    -1.7003 H       
  30 H30           -1.2230     1.9733    -2.3425 H       
  31 H31           -4.0588     0.3742    -1.2862 H       
  32 H32           -4.4102     1.3059     0.1892 H       
  33 H33           -4.6436     2.0508    -1.4105 H       
  34 H34           -2.9393     3.2051     1.6678 H       
  35 H35            2.3397     6.1588     1.8206 H       
  36 H36            3.1572     4.5897     1.8928 H       
  37 H37            2.8366     4.3054    -0.3208 H       
  38 H38            2.0058     5.8905    -0.4023 H       
  39 H39            0.3285     3.1671     6.3480 H       
  40 H40            0.5590     4.9312     6.2938 H       
  41 H41           -1.0843     4.2474     6.2767 H       
  42 H42           -2.7736     3.5144     4.8733 H       
  43 H43           -4.6796    -0.7518     5.2917 H       
  44 H44           -0.9188    -1.3176     3.3583 H       
  45 H45           -0.5296     1.1125     3.3896 H       
@<TRIPOS>BOND
   1    1    2 1
   2    1    3 1
   3    1    4 am
   4    2   28 1
   5    2   29 1
   6    2   30 1
   7    3   31 1
   8    3   32 1
   9    3   33 1
  10    4    5 2
  11    4    6 2
  12    4    7 am
  13    7    9 1
  14    7   34 1
  15    8    9 2
  16    8   13 1
  17    8   14 1
  18    9   10 1
  19   10   11 2
  20   10   19 1
  21   11   12 1
  22   11   18 1
  23   12   13 am
  24   12   17 2
  25   13   15 1
  26   14   16 1
  27   15   16 1
  28   15   35 1
  29   15   36 1
  30   16   37 1
  31   16   38 1
  32   18   39 1
  33   18   40 1
  34   18   41 1
  35   19   20 1
  36   19   42 1
  37   20   21 ar
  38   20   25 ar
  39   21   22 ar
  40   21   27 1
  41   22   23 ar
  42   22   43 1
  43   23   24 ar
  44   23   26 1
  45   24   25 ar
  46   24   44 1
  47   25   45 1

#	End of record

