#	Name: ASD01918067
#	Creating user name:	WinNT
#	Creation time:	15. 06. 2019 20:10

#	Modifying user name:	WinNT
#	Modification time:	15. 06. 2019 20:10

#	Program:	/corina/corina34_cracker 3.40 0067  02.08.2006

@<TRIPOS>MOLECULE
ASD01918067
  43   46    0    0    0
SMALL
NO_CHARGES


@<TRIPOS>ATOM
   1 C1            -0.0015     1.5047     0.0356 C.3     
   2 C2             0.0419     0.0004     0.0922 C.2     
   3 C3             1.0723    -0.7495    -0.3708 C.2     
   4 C4             2.3134    -0.1843    -1.0083 C.3     
   5 C5             2.0306     1.2695    -1.4092 C.3     
   6 C6             1.4206     2.0192    -0.2223 C.3     
   7 N7             0.7431    -2.0320    -0.1407 N.pl3   
   8 N8            -0.4175    -2.0503     0.4248 N.2     
   9 N9            -0.8599    -0.8478     0.5757 N.2     
  10 C10            1.5578    -3.2033    -0.4730 C.3     
  11 C11            1.3727     3.4935    -0.5309 C.2     
  12 N12            1.9645     4.4487     0.1420 N.2     
  13 C13            1.6430     5.5962    -0.4972 C.2     
  14 N14            0.8822     5.2733    -1.5108 N.2     
  15 O15            0.7229     4.0714    -1.5460 O.3     
  16 C16            2.0728     6.9652    -0.1194 C.ar    
  17 C17            1.6613     8.0606    -0.8762 C.ar    
  18 C18            2.0633     9.3318    -0.5215 C.ar    
  19 C19            2.8754     9.5201     0.5853 C.ar    
  20 C20            3.2873     8.4336     1.3404 C.ar    
  21 C21            2.8845     7.1598     0.9965 C.ar    
  22 F22            3.2672    10.7665     0.9291 F       
  23 C23            2.8699    -3.1513     0.3121 C.3     
  24 C24            0.7937    -4.4769    -0.1055 C.3     
  25 C25            1.8491    -3.2050    -1.9159 C.1     
  26 N26            2.0739    -3.2063    -3.0294 N.1     
  27 H27           -0.6595     1.8229    -0.7730 H       
  28 H28           -0.3678     1.8975     0.9841 H       
  29 H29            3.1385    -0.2153    -0.2968 H       
  30 H30            2.5692    -0.7664    -1.8937 H       
  31 H31            2.9622     1.7526    -1.7040 H       
  32 H32            1.3325     1.2861    -2.2461 H       
  33 H33            2.0328     1.8540     0.6643 H       
  34 H34            1.0289     7.9146    -1.7394 H       
  35 H35            1.7448    10.1812    -1.1074 H       
  36 H36            3.9208     8.5848     2.2019 H       
  37 H37            3.2020     6.3140     1.5883 H       
  38 H38            2.6542    -3.1501     1.3806 H       
  39 H39            3.4761    -4.0228     0.0649 H       
  40 H40            3.4143    -2.2440     0.0503 H       
  41 H41           -0.1544    -4.4996    -0.6428 H       
  42 H42            1.3876    -5.3488    -0.3796 H       
  43 H43            0.6035    -4.4896     0.9677 H       
@<TRIPOS>BOND
   1    1    2 1
   2    1    6 1
   3    1   27 1
   4    1   28 1
   5    2    9 1
   6    2    3 2
   7    3    4 1
   8    3    7 1
   9    4    5 1
  10    4   29 1
  11    4   30 1
  12    5    6 1
  13    5   31 1
  14    5   32 1
  15    6   11 1
  16    6   33 1
  17    7    8 1
  18    7   10 1
  19    8    9 2
  20   10   23 1
  21   10   24 1
  22   10   25 1
  23   11   12 2
  24   11   15 1
  25   12   13 1
  26   13   14 2
  27   13   16 1
  28   14   15 1
  29   16   17 ar
  30   16   21 ar
  31   17   18 ar
  32   17   34 1
  33   18   19 ar
  34   18   35 1
  35   19   20 ar
  36   19   22 1
  37   20   21 ar
  38   20   36 1
  39   21   37 1
  40   23   38 1
  41   23   39 1
  42   23   40 1
  43   24   41 1
  44   24   42 1
  45   24   43 1
  46   25   26 3

#	End of record

