#	Name: ASD01820117
#	Creating user name:	WinNT
#	Creation time:	15. 06. 2019 19:36

#	Modifying user name:	WinNT
#	Modification time:	15. 06. 2019 19:36

#	Program:	/corina/corina34_cracker 3.40 0067  02.08.2006

@<TRIPOS>MOLECULE
ASD01820117
  60   63    0    0    0
SMALL
NO_CHARGES


@<TRIPOS>ATOM
   1 C1            -0.0252     1.5248     0.0639 C.3     
   2 C2             0.0122    -0.0047     0.0645 C.3     
   3 C3             0.7463    -0.4974    -1.1842 C.3     
   4 C4             0.7452    -0.4964     1.3143 C.3     
   5 C5            -0.0552    -0.1106     2.5598 C.3     
   6 H6            -0.2363     0.9642     2.5569 H       
   7 N7            -1.3361    -0.8217     2.5568 N.am    
   8 C8            -2.3917    -0.3113     3.2214 C.2     
   9 O9            -2.2562     0.6865     3.9037 O.2     
  10 C10           -3.7081    -0.9613     3.1217 C.2     
  11 C11           -4.7654    -0.5255     3.8907 C.2     
  12 N12           -5.9805    -1.0943     3.8262 N.pl3   
  13 C13           -6.9984    -0.5912     4.6406 C.ar    
  14 N14           -7.7162     0.4411     4.2297 N.ar    
  15 C15           -8.6862     0.9479     4.9661 C.ar    
  16 C16           -8.9899     0.4130     6.2052 C.ar    
  17 F17           -9.9857     0.9398     6.9509 F       
  18 C18           -8.2596    -0.6724     6.6744 C.ar    
  19 C19           -7.2510    -1.1848     5.8743 C.ar    
  20 F20           -6.5193    -2.2425     6.2880 F       
  21 C21           -6.2665    -2.1521     2.9913 C.ar    
  22 N22           -7.4852    -2.6766     2.9667 N.ar    
  23 C23           -7.7855    -3.6918     2.1743 C.ar    
  24 C24           -6.8344    -4.2597     1.3266 C.ar    
  25 C25           -5.5607    -3.7564     1.3123 C.ar    
  26 C26           -5.2653    -2.6822     2.1583 C.ar    
  27 C27           -3.9207    -2.0850     2.1939 C.2     
  28 O28           -3.0200    -2.5054     1.4885 O.2     
  29 N29           -9.0772    -4.2044     2.1867 N.am    
  30 C30          -10.2184    -3.5580     2.8452 C.3     
  31 C31          -11.4744    -4.2247     2.2415 C.3     
  32 H32          -12.2543    -4.3409     2.9942 H       
  33 O33          -11.9571    -3.4838     1.1190 O.3     
  34 C34          -10.9208    -5.5998     1.8014 C.3     
  35 C35           -9.4430    -5.3532     1.5921 C.2     
  36 O36           -8.6965    -6.0865     0.9793 O.2     
  37 C37            0.7363    -0.4910     3.8127 C.3     
  38 F38            1.9595     0.1880     3.8156 F       
  39 F39            0.0044    -0.1382     4.9517 F       
  40 F40            0.9687    -1.8705     3.8166 F       
  41 H41            0.9932     1.9132     0.0642 H       
  42 H42           -0.5474     1.8751    -0.8265 H       
  43 H43           -0.5482     1.8758     0.9535 H       
  44 H44           -1.0062    -0.3931     0.0642 H       
  45 H45            1.7647    -0.1090    -1.1839 H       
  46 H46            0.7730    -1.5871    -1.1838 H       
  47 H47            0.2241    -0.1471    -2.0746 H       
  48 H48            0.8500    -1.5805     1.2711 H       
  49 H49            1.7328    -0.0375     1.3604 H       
  50 H50           -1.4244    -1.6597     2.0765 H       
  51 H51           -4.6117     0.3012     4.5685 H       
  52 H52           -9.2504     1.7916     4.5970 H       
  53 H53           -8.4761    -1.1090     7.6382 H       
  54 H54           -7.0999    -5.0889     0.6876 H       
  55 H55           -4.8051    -4.1774     0.6656 H       
  56 H56          -10.1802    -3.7300     3.9209 H       
  57 H57          -10.2202    -2.4888     2.6333 H       
  58 H58          -12.7448    -3.8637     0.7062 H       
  59 H59          -11.0806    -6.3431     2.5825 H       
  60 H60          -11.3874    -5.9182     0.8693 H       
@<TRIPOS>BOND
   1    1    2 1
   2    1   41 1
   3    1   42 1
   4    1   43 1
   5    2    3 1
   6    2    4 1
   7    2   44 1
   8    3   45 1
   9    3   46 1
  10    3   47 1
  11    4    5 1
  12    4   48 1
  13    4   49 1
  14    5    6 1
  15    5    7 1
  16    5   37 1
  17    7    8 am
  18    7   50 1
  19    8    9 2
  20    8   10 1
  21   10   27 1
  22   10   11 2
  23   11   12 1
  24   11   51 1
  25   12   13 1
  26   12   21 1
  27   13   19 ar
  28   13   14 ar
  29   14   15 ar
  30   15   16 ar
  31   15   52 1
  32   16   17 1
  33   16   18 ar
  34   18   19 ar
  35   18   53 1
  36   19   20 1
  37   21   26 ar
  38   21   22 ar
  39   22   23 ar
  40   23   24 ar
  41   23   29 1
  42   24   25 ar
  43   24   54 1
  44   25   26 ar
  45   25   55 1
  46   26   27 1
  47   27   28 2
  48   29   35 am
  49   29   30 1
  50   30   31 1
  51   30   56 1
  52   30   57 1
  53   31   32 1
  54   31   33 1
  55   31   34 1
  56   33   58 1
  57   34   35 1
  58   34   59 1
  59   34   60 1
  60   35   36 2
  61   37   38 1
  62   37   39 1
  63   37   40 1

#	End of record

