#	Name: ASD06710013
#	Creating user name:	WinNT
#	Creation time:	15. 06. 2019 21:08

#	Modifying user name:	WinNT
#	Modification time:	15. 06. 2019 21:08

#	Program:	/corina/corina34_cracker 3.40 0067  02.08.2006

@<TRIPOS>MOLECULE
ASD06710013
  67   68    0    0    0
SMALL
NO_CHARGES


@<TRIPOS>ATOM
   1 C1             0.2997     1.0478     1.2386 C.ar    
   2 C2             0.0052     0.0224     0.3519 C.ar    
   3 C3             0.9026    -0.2991    -0.6560 C.ar    
   4 C4             2.0869     0.4022    -0.7743 C.ar    
   5 C5             2.3783     1.4235     0.1110 C.ar    
   6 C6             1.4853     1.7462     1.1161 C.ar    
   7 C7             2.5185     4.1187    -1.1153 C.ar    
   8 C8             3.3762     3.6598    -0.1326 C.ar    
   9 C9             3.6714     2.1863    -0.0198 C.3     
  10 C10            2.2463     5.4689    -1.2207 C.ar    
  11 C11            2.8342     6.3648    -0.3396 C.ar    
  12 C12            3.6948     5.9019     0.6452 C.ar    
  13 C13            3.9638     4.5507     0.7465 C.ar    
  14 O14           -1.1603    -0.6664     0.4707 O.3     
  15 O15            2.5684     7.6936    -0.4415 O.3     
  16 C16           -1.3971    -1.7092    -0.4773 C.3     
  17 C17           -2.7483    -2.3655    -0.1866 C.3     
  18 O18           -3.7948    -1.4160    -0.3997 O.3     
  19 C19           -2.9462    -3.5609    -1.1209 C.3     
  20 O20           -4.1524    -4.2432    -0.7724 O.3     
  21 C21           -4.4325    -5.3821    -1.5888 C.3     
  22 C22            3.2090     8.5575     0.4994 C.3     
  23 C23            2.7914    10.0045     0.2298 C.3     
  24 C24            3.3770    10.9143     1.3116 C.3     
  25 O25            2.8928    12.2460     1.1273 O.3     
  26 O26            3.2801    10.4107    -1.0501 O.3     
  27 C27            3.3822    13.1809     2.0909 C.3     
  28 C28            4.5399     1.9332     1.2141 C.3     
  29 C29           -3.7949    -6.6255    -0.9656 C.3     
  30 C30            4.4154     1.7180    -1.2720 C.3     
  31 C31           -5.9466    -5.5798    -1.6863 C.3     
  32 H32           -0.3994     1.3029     2.0214 H       
  33 H33            0.6758    -1.0972    -1.3473 H       
  34 H34            2.7859     0.1524    -1.5588 H       
  35 H35            1.7152     2.5443     1.8064 H       
  36 H36            2.0645     3.4213    -1.8038 H       
  37 H37            1.5765     5.8268    -1.9886 H       
  38 H38            4.1541     6.5974     1.3321 H       
  39 H39            4.6334     4.1898     1.5133 H       
  40 H40           -1.4057    -1.2903    -1.4836 H       
  41 H41           -0.6067    -2.4558    -0.4012 H       
  42 H42           -2.7717    -2.7058     0.8487 H       
  43 H43           -3.8340    -1.0698    -1.3017 H       
  44 H44           -3.0116    -3.2101    -2.1508 H       
  45 H45           -2.1015    -4.2428    -1.0223 H       
  46 H46           -4.0218    -5.2243    -2.5860 H       
  47 H47            2.9138     8.2764     1.5103 H       
  48 H48            4.2905     8.4666     0.3983 H       
  49 H49            1.7039    10.0773     0.2433 H       
  50 H50            3.0758    10.5509     2.2941 H       
  51 H51            4.4646    10.9100     1.2403 H       
  52 H52            4.2426    10.3711    -1.1343 H       
  53 H53            4.4699    13.2237     2.0358 H       
  54 H54            2.9687    14.1677     1.8823 H       
  55 H55            3.0811    12.8646     3.0896 H       
  56 H56            4.0098     2.2669     2.1062 H       
  57 H57            4.7534     0.8674     1.2957 H       
  58 H58            5.4752     2.4849     1.1195 H       
  59 H59           -2.7163    -6.4847    -0.8961 H       
  60 H60           -4.2057    -6.7834     0.0317 H       
  61 H61           -4.0086    -7.4943    -1.5882 H       
  62 H62            5.3507     2.2697    -1.3666 H       
  63 H63            4.6289     0.6522    -1.1904 H       
  64 H64            3.7967     1.8983    -2.1510 H       
  65 H65           -6.4008    -4.6940    -2.1303 H       
  66 H66           -6.1602    -6.4486    -2.3089 H       
  67 H67           -6.3573    -5.7377    -0.6890 H       
@<TRIPOS>BOND
   1    1    2 ar
   2    1    6 ar
   3    1   32 1
   4    2    3 ar
   5    2   14 1
   6    3    4 ar
   7    3   33 1
   8    4    5 ar
   9    4   34 1
  10    5    6 ar
  11    5    9 1
  12    6   35 1
  13    7    8 ar
  14    7   10 ar
  15    7   36 1
  16    8    9 1
  17    8   13 ar
  18    9   28 1
  19    9   30 1
  20   10   11 ar
  21   10   37 1
  22   11   12 ar
  23   11   15 1
  24   12   13 ar
  25   12   38 1
  26   13   39 1
  27   14   16 1
  28   15   22 1
  29   16   17 1
  30   16   40 1
  31   16   41 1
  32   17   18 1
  33   17   19 1
  34   17   42 1
  35   18   43 1
  36   19   20 1
  37   19   44 1
  38   19   45 1
  39   20   21 1
  40   21   29 1
  41   21   31 1
  42   21   46 1
  43   22   23 1
  44   22   47 1
  45   22   48 1
  46   23   24 1
  47   23   26 1
  48   23   49 1
  49   24   25 1
  50   24   50 1
  51   24   51 1
  52   25   27 1
  53   26   52 1
  54   27   53 1
  55   27   54 1
  56   27   55 1
  57   28   56 1
  58   28   57 1
  59   28   58 1
  60   29   59 1
  61   29   60 1
  62   29   61 1
  63   30   62 1
  64   30   63 1
  65   30   64 1
  66   31   65 1
  67   31   66 1
  68   31   67 1

#	End of record

