#	Name: ASD07300842
#	Creating user name:	WinNT
#	Creation time:	15. 06. 2019 21:10

#	Modifying user name:	WinNT
#	Modification time:	15. 06. 2019 21:10

#	Program:	/corina/corina34_cracker 3.40 0067  02.08.2006

@<TRIPOS>MOLECULE
ASD07300842
  49   53    0    0    0
SMALL
NO_CHARGES


@<TRIPOS>ATOM
   1 N1            -0.4257     1.6060     0.3765 N.am    
   2 C2            -0.2518     0.2604     0.3970 C.2     
   3 N3             0.9168    -0.3052     0.3162 N.2     
   4 C4             2.0456     0.4126     0.2052 C.2     
   5 C5             1.9655     1.8137     0.1752 C.2     
   6 C6             0.6423     2.4305     0.2676 C.2     
   7 N7             3.3630     0.0972     0.1058 N.pl3   
   8 N8             4.0949     1.2878     0.0148 N.2     
   9 C9             3.2789     2.3048     0.0550 C.2     
  10 O10            0.5065     3.6411     0.2467 O.2     
  11 C11            3.9227    -1.2567     0.0958 C.3     
  12 C12            4.7064    -1.4751    -1.1999 C.3     
  13 C13            5.2909    -2.8890    -1.2103 C.3     
  14 C14            6.2269    -3.0628    -0.0125 C.3     
  15 C15            5.4431    -2.8444     1.2832 C.3     
  16 C16            4.8587    -1.4305     1.2935 C.3     
  17 C17           -1.4690    -0.6196     0.5195 C.3     
  18 C18           -1.1708    -2.0035     1.1201 C.3     
  19 C19           -0.9035    -2.4823    -0.3166 C.3     
  20 C20           -1.8343    -1.3506    -0.7832 C.3     
  21 C21           -1.3530    -0.6468    -2.0258 C.ar    
  22 C22           -2.2731    -0.1232    -2.9139 C.ar    
  23 C23           -1.8198     0.5225    -4.0543 C.ar    
  24 C24           -0.4520     0.6177    -4.2590 C.ar    
  25 C25            0.4083     0.0695    -3.3263 C.ar    
  26 N26           -0.0584    -0.5329    -2.2503 N.ar    
  27 F27            6.7613    -4.3557    -0.0220 F       
  28 F28            7.2651    -2.1285    -0.0927 F       
  29 H29           -1.3193     1.9784     0.4360 H       
  30 H30            3.5627     3.3456     0.0046 H       
  31 H31            3.1138    -1.9847     0.1583 H       
  32 H32            4.0396    -1.3513    -2.0532 H       
  33 H33            5.5153    -0.7471    -1.2623 H       
  34 H34            4.4820    -3.6170    -1.1478 H       
  35 H35            5.8492    -3.0446    -2.1334 H       
  36 H36            4.6343    -3.5724     1.3456 H       
  37 H37            6.1100    -2.9682     2.1364 H       
  38 H38            5.6676    -0.7025     1.2311 H       
  39 H39            4.3003    -1.2749     2.2166 H       
  40 H40           -2.3124    -0.1126     0.9884 H       
  41 H41           -0.2871    -2.0214     1.7578 H       
  42 H42           -2.0378    -2.4746     1.5831 H       
  43 H43            0.1316    -2.3551    -0.6338 H       
  44 H44           -1.2911    -3.4798    -0.5236 H       
  45 H45           -2.8827    -1.6432    -0.8405 H       
  46 H46           -3.3319    -0.2162    -2.7224 H       
  47 H47           -2.5158     0.9411    -4.7661 H       
  48 H48           -0.0636     1.1134    -5.1364 H       
  49 H49            1.4753     0.1391    -3.4787 H       
@<TRIPOS>BOND
   1    1    2 1
   2    1    6 am
   3    1   29 1
   4    2    3 2
   5    2   17 1
   6    3    4 1
   7    4    5 2
   8    4    7 1
   9    5    6 1
  10    5    9 1
  11    6   10 2
  12    7    8 1
  13    7   11 1
  14    8    9 2
  15    9   30 1
  16   11   12 1
  17   11   16 1
  18   11   31 1
  19   12   13 1
  20   12   32 1
  21   12   33 1
  22   13   14 1
  23   13   34 1
  24   13   35 1
  25   14   15 1
  26   14   27 1
  27   14   28 1
  28   15   16 1
  29   15   36 1
  30   15   37 1
  31   16   38 1
  32   16   39 1
  33   17   18 1
  34   17   20 1
  35   17   40 1
  36   18   19 1
  37   18   41 1
  38   18   42 1
  39   19   20 1
  40   19   43 1
  41   19   44 1
  42   20   21 1
  43   20   45 1
  44   21   22 ar
  45   21   26 ar
  46   22   23 ar
  47   22   46 1
  48   23   24 ar
  49   23   47 1
  50   24   25 ar
  51   24   48 1
  52   25   26 ar
  53   25   49 1

#	End of record

