#	Name: ASD01900283
#	Creating user name:	WinNT
#	Creation time:	15. 06. 2019 19:51

#	Modifying user name:	WinNT
#	Modification time:	15. 06. 2019 19:51

#	Program:	/corina/corina34_cracker 3.40 0067  02.08.2006

@<TRIPOS>MOLECULE
ASD01900283
  64   68    0    0    0
SMALL
NO_CHARGES


@<TRIPOS>ATOM
   1 C1             0.1410     0.8609    -0.2664 C.ar    
   2 C2             0.3222    -0.5042    -0.3028 C.ar    
   3 C3             1.6077    -1.0434    -0.4093 C.ar    
   4 C4             2.7180    -0.2024    -0.4733 C.ar    
   5 C5             2.5395     1.1693    -0.4338 C.ar    
   6 C6             1.2446     1.7081    -0.3368 C.ar    
   7 N7             3.6179     2.0468    -0.4785 N.pl3   
   8 C8             3.4188     3.3863    -1.0434 C.3     
   9 N9             2.1608     3.9576    -0.5614 N.am    
  10 C10            1.0942     3.1759    -0.3013 C.2     
  11 C11            4.5822     4.2892    -0.6229 C.3     
  12 C12            3.3845     3.2914    -2.5713 C.3     
  13 C13            3.2494     4.6969    -3.1617 C.3     
  14 N14            4.3846     5.5222    -2.7299 N.3     
  15 C15            4.4114     5.6661    -1.2687 C.3     
  16 C16            2.0636     5.3408    -0.3666 C.ar    
  17 C17            1.4058     6.1295    -1.3013 C.ar    
  18 C18            1.3104     7.4934    -1.1085 C.ar    
  19 C19            1.8718     8.0760     0.0184 C.ar    
  20 C20            2.5291     7.2888     0.9526 C.ar    
  21 C21            2.6200     5.9239     0.7643 C.ar    
  22 C22            2.3791     9.9517     1.3893 C.3     
  23 O23            1.7783     9.4193     0.2071 O.3     
  24 C24            4.3611     6.8355    -3.3878 C.3     
  25 C25            5.4754     7.6908    -2.8421 C.ar    
  26 C26            6.7521     7.5754    -3.3594 C.ar    
  27 C27            7.7742     8.3599    -2.8588 C.ar    
  28 C28            7.5196     9.2601    -1.8411 C.ar    
  29 C29            6.2427     9.3761    -1.3244 C.ar    
  30 C30            5.2196     8.5947    -1.8280 C.ar    
  31 O31            0.0170     3.6756    -0.0396 O.2     
  32 C32            1.7905    -2.5108    -0.4537 C.2     
  33 O33            0.7195    -3.3251    -0.3916 O.3     
  34 C34            0.9739    -4.7538    -0.4405 C.3     
  35 O35            2.9063    -2.9812    -0.5462 O.2     
  36 H36           -0.8541     1.2733    -0.1880 H       
  37 H37           -0.5332    -1.1613    -0.2485 H       
  38 H38            3.7113    -0.6189    -0.5530 H       
  39 H39            4.4870     1.7777    -0.1421 H       
  40 H40            4.5877     4.3942     0.4620 H       
  41 H41            5.5230     3.8473    -0.9513 H       
  42 H42            4.3072     2.8339    -2.9284 H       
  43 H43            2.5335     2.6840    -2.8793 H       
  44 H44            3.2392     4.6343    -4.2498 H       
  45 H45            2.3197     5.1484    -2.8154 H       
  46 H46            3.4762     6.1124    -0.9305 H       
  47 H47            5.2446     6.3077    -0.9821 H       
  48 H48            0.9692     5.6762    -2.1790 H       
  49 H49            0.7988     8.1070    -1.8354 H       
  50 H50            2.9663     7.7430     1.8295 H       
  51 H51            3.1275     5.3105     1.4941 H       
  52 H52            2.2323    11.0314     1.4168 H       
  53 H53            1.9169     9.4998     2.2669 H       
  54 H54            3.4463     9.7301     1.3859 H       
  55 H55            4.4950     6.7062    -4.4618 H       
  56 H56            3.4038     7.3205    -3.1967 H       
  57 H57            6.9510     6.8721    -4.1545 H       
  58 H58            8.7718     8.2693    -3.2625 H       
  59 H59            8.3183     9.8725    -1.4495 H       
  60 H60            6.0438    10.0792    -0.5290 H       
  61 H61            4.2213     8.6879    -1.4268 H       
  62 H62            1.4763    -5.0016    -1.3755 H       
  63 H63            1.6077    -5.0390     0.3992 H       
  64 H64            0.0286    -5.2934    -0.3819 H       
@<TRIPOS>BOND
   1    1    2 ar
   2    1    6 ar
   3    1   36 1
   4    2    3 ar
   5    2   37 1
   6    3    4 ar
   7    3   32 1
   8    4    5 ar
   9    4   38 1
  10    5    7 1
  11    5    6 ar
  12    6   10 1
  13    7    8 1
  14    7   39 1
  15    8    9 1
  16    8   12 1
  17    8   11 1
  18    9   10 am
  19    9   16 1
  20   10   31 2
  21   11   15 1
  22   11   40 1
  23   11   41 1
  24   12   13 1
  25   12   42 1
  26   12   43 1
  27   13   14 1
  28   13   44 1
  29   13   45 1
  30   14   15 1
  31   14   24 1
  32   15   46 1
  33   15   47 1
  34   16   17 ar
  35   16   21 ar
  36   17   18 ar
  37   17   48 1
  38   18   19 ar
  39   18   49 1
  40   19   20 ar
  41   19   23 1
  42   20   21 ar
  43   20   50 1
  44   21   51 1
  45   22   23 1
  46   22   52 1
  47   22   53 1
  48   22   54 1
  49   24   25 1
  50   24   55 1
  51   24   56 1
  52   25   26 ar
  53   25   30 ar
  54   26   27 ar
  55   26   57 1
  56   27   28 ar
  57   27   58 1
  58   28   29 ar
  59   28   59 1
  60   29   30 ar
  61   29   60 1
  62   30   61 1
  63   32   33 1
  64   32   35 2
  65   33   34 1
  66   34   62 1
  67   34   63 1
  68   34   64 1

#	End of record

