#	Name: ASD02508111
#	Creating user name:	WinNT
#	Creation time:	15. 06. 2019 20:23

#	Modifying user name:	WinNT
#	Modification time:	15. 06. 2019 20:23

#	Program:	/corina/corina34_cracker 3.40 0067  02.08.2006

@<TRIPOS>MOLECULE
ASD02508111
  33   35    0    0    0
SMALL
NO_CHARGES


@<TRIPOS>ATOM
   1 C1            -0.0167     1.3817     0.0096 C.ar    
   2 C2             0.0021    -0.0041     0.0020 C.ar    
   3 C3             1.1795     2.0990     0.0021 C.ar    
   4 C4             2.3884     1.4222    -0.0131 C.ar    
   5 C5             2.4038     0.0352    -0.0207 C.ar    
   6 C6             1.2091    -0.6766    -0.0131 C.ar    
   7 N7            -1.0469     2.3253     0.0189 N.am    
   8 C8            -0.4767     3.5465     0.0233 C.2     
   9 O9             0.8592     3.4165     0.0122 O.3     
  10 N10            3.6245    -0.6495    -0.0361 N.am    
  11 S11            4.2718    -1.1559    -1.4737 S.o2    
  12 C12            5.2945     0.1477    -2.0732 C.2     
  13 S13            4.7600     1.4562    -3.1198 S.3     
  14 O14           -1.0793     4.6027     0.0315 O.2     
  15 O15            5.1402    -2.2372    -1.1641 O.2     
  16 O16            3.1873    -1.2666    -2.3852 O.2     
  17 C17           -2.4838     2.0398     0.0224 C.3     
  18 Cl18           1.2341    -2.4124    -0.0233 Cl      
  19 C19            6.5912     0.2963    -1.7980 C.2     
  20 C20            7.1888     1.3996    -2.3824 C.2     
  21 C21            6.3769     2.1482    -3.1306 C.2     
  22 C22            4.3295    -0.9182     1.2197 C.3     
  23 H23           -0.9253    -0.5575     0.0083 H       
  24 H24            3.3171     1.9736    -0.0194 H       
  25 H25           -2.8365     1.9629     1.0509 H       
  26 H26           -3.0155     2.8449    -0.4847 H       
  27 H27           -2.6686     1.0991    -0.4963 H       
  28 H28            7.1337    -0.3920    -1.1667 H       
  29 H29            8.2328     1.6375    -2.2417 H       
  30 H30            6.6676     3.0432    -3.6606 H       
  31 H31            4.0043    -1.8782     1.6207 H       
  32 H32            5.4033    -0.9467     1.0347 H       
  33 H33            4.1053    -0.1297     1.9381 H       
@<TRIPOS>BOND
   1    1    2 ar
   2    1    3 ar
   3    1    7 1
   4    2    6 ar
   5    2   23 1
   6    3    4 ar
   7    3    9 1
   8    4    5 ar
   9    4   24 1
  10    5    6 ar
  11    5   10 1
  12    6   18 1
  13    7    8 am
  14    7   17 1
  15    8    9 1
  16    8   14 2
  17   10   11 am
  18   10   22 1
  19   11   12 1
  20   11   15 2
  21   11   16 2
  22   12   13 1
  23   12   19 2
  24   13   21 1
  25   17   25 1
  26   17   26 1
  27   17   27 1
  28   19   20 1
  29   19   28 1
  30   20   21 2
  31   20   29 1
  32   21   30 1
  33   22   31 1
  34   22   32 1
  35   22   33 1

#	End of record

