#	Name: ASD00069117
#	Creating user name:	WinNT
#	Creation time:	15. 06. 2019 18:29

#	Modifying user name:	WinNT
#	Modification time:	15. 06. 2019 18:29

#	Program:	/corina/corina34_cracker 3.40 0067  02.08.2006

@<TRIPOS>MOLECULE
ASD00069117
  40   42    0    0    0
SMALL
NO_CHARGES


@<TRIPOS>ATOM
   1 C1            -0.0636     1.2968    -0.5900 C.2     
   2 N2            -0.0207     0.0043    -0.3444 N.2     
   3 C3             1.2230    -0.4349    -0.5248 C.2     
   4 C4             1.9971     0.6146    -0.8979 C.2     
   5 N5             1.1912     1.7094    -0.9408 N.pl3   
   6 C6            -1.2611     2.1514    -0.5071 C.2     
   7 O7            -1.1795     3.3387    -0.7586 O.2     
   8 N8            -2.4468     1.6176    -0.1527 N.am    
   9 Br9            1.8105    -2.2181    -0.2988 Br      
  10 C10           -3.5589     2.4469     0.0386 C.ar    
  11 C11           -4.8444     1.9074     0.0209 C.ar    
  12 C12           -5.9427     2.7353     0.2112 C.ar    
  13 C13           -5.7585     4.0917     0.4176 C.ar    
  14 C14           -4.4830     4.6251     0.4344 C.ar    
  15 C15           -3.3842     3.8065     0.2519 C.ar    
  16 F16           -7.1905     2.2175     0.1946 F       
  17 N17           -5.0274     0.5345    -0.1886 N.3     
  18 C18           -5.7514     0.2853    -1.4416 C.3     
  19 C19           -5.8053    -1.2203    -1.7104 C.3     
  20 C20           -6.5112    -1.9171    -0.5440 C.3     
  21 C21           -5.7652    -1.6020     0.7555 C.3     
  22 C22           -5.7125    -0.0853     0.9528 C.3     
  23 N23           -6.5478    -1.4704    -2.9530 N.3     
  24 H24            3.0538     0.5862    -1.1192 H       
  25 H25            1.4568     2.6122    -1.1758 H       
  26 H26           -2.5298     0.6590    -0.0301 H       
  27 H27           -6.6133     4.7349     0.5655 H       
  28 H28           -4.3445     5.6841     0.5951 H       
  29 H29           -2.3893     4.2264     0.2705 H       
  30 H30           -6.7656     0.6760    -1.3589 H       
  31 H31           -5.2367     0.7828    -2.2636 H       
  32 H32           -4.7916    -1.6092    -1.8070 H       
  33 H33           -7.5373    -1.5567    -0.4715 H       
  34 H34           -6.5135    -2.9943    -0.7107 H       
  35 H35           -6.2875    -2.0603     1.5953 H       
  36 H36           -4.7509    -1.9969     0.6978 H       
  37 H37           -5.1695     0.1429     1.8700 H       
  38 H38           -6.7269     0.3071     1.0243 H       
  39 H39           -6.5971    -2.4583    -3.1522 H       
  40 H40           -7.4702    -1.0635    -2.9112 H       
@<TRIPOS>BOND
   1    1    2 2
   2    1    5 1
   3    1    6 1
   4    2    3 1
   5    3    4 2
   6    3    9 1
   7    4    5 1
   8    4   24 1
   9    5   25 1
  10    6    7 2
  11    6    8 am
  12    8   10 1
  13    8   26 1
  14   10   11 ar
  15   10   15 ar
  16   11   12 ar
  17   11   17 1
  18   12   13 ar
  19   12   16 1
  20   13   14 ar
  21   13   27 1
  22   14   15 ar
  23   14   28 1
  24   15   29 1
  25   17   18 1
  26   17   22 1
  27   18   19 1
  28   18   30 1
  29   18   31 1
  30   19   20 1
  31   19   23 1
  32   19   32 1
  33   20   21 1
  34   20   33 1
  35   20   34 1
  36   21   22 1
  37   21   35 1
  38   21   36 1
  39   22   37 1
  40   22   38 1
  41   23   39 1
  42   23   40 1

#	End of record

