#	Name: ASD01880690
#	Creating user name:	WinNT
#	Creation time:	15. 06. 2019 19:41

#	Modifying user name:	WinNT
#	Modification time:	15. 06. 2019 19:41

#	Program:	/corina/corina34_cracker 3.40 0067  02.08.2006

@<TRIPOS>MOLECULE
ASD01880690
  48   51    0    0    0
SMALL
NO_CHARGES


@<TRIPOS>ATOM
   1 N1             0.0047     1.3278    -0.1708 N.ar    
   2 C2             0.0076     0.0104    -0.1809 C.ar    
   3 N3             1.1173    -0.6849    -0.0197 N.ar    
   4 C4             2.2815    -0.0806     0.1601 C.ar    
   5 C5             2.3288     1.3022     0.1783 C.ar    
   6 C6             1.1358     2.0083     0.0046 C.ar    
   7 C7             3.6339     2.0281     0.3807 C.3     
   8 O8             4.6664     1.0816     0.6637 O.3     
   9 C9             5.9134     1.5745     0.8734 C.ar    
  10 C10            6.9653     0.7078     1.1538 C.ar    
  11 C11            8.2262     1.2076     1.3652 C.ar    
  12 C12            8.4617     2.5849     1.3006 C.ar    
  13 C13            7.4017     3.4510     1.0182 C.ar    
  14 C14            6.1397     2.9438     0.8021 C.ar    
  15 C15            9.5527     0.5633     1.6824 C.3     
  16 N16           10.5248     1.6575     1.7879 N.am    
  17 C17            9.8911     2.8220     1.5669 C.2     
  18 O18           10.4221     3.9156     1.5840 O.2     
  19 Br19          -1.6250    -0.9100    -0.4330 Br      
  20 C20            7.6403     4.9372     0.9459 C.3     
  21 C21            1.1294     3.4913     0.0151 C.ar    
  22 C22            2.0945     4.2001    -0.6984 C.ar    
  23 C23            2.0833     5.5800    -0.6855 C.ar    
  24 C24            1.1168     6.2598     0.0337 C.ar    
  25 C25            0.1566     5.5616     0.7437 C.ar    
  26 C26            0.1548     4.1816     0.7337 C.ar    
  27 C27           12.7298     1.3381     0.7793 C.3     
  28 C28           11.9511     1.5056     2.0857 C.3     
  29 H29            3.1835    -0.6600     0.2914 H       
  30 H30            3.8861     2.5813    -0.5240 H       
  31 H31            3.5380     2.7218     1.2160 H       
  32 H32            6.7898    -0.3566     1.2054 H       
  33 H33            5.3211     3.6136     0.5836 H       
  34 H34            9.4910     0.0245     2.6279 H       
  35 H35            9.8401    -0.1171     0.8809 H       
  36 H36            7.8992     5.2144    -0.0760 H       
  37 H37            6.7359     5.4655     1.2477 H       
  38 H38            8.4585     5.2067     1.6138 H       
  39 H39            2.8497     3.6704    -1.2601 H       
  40 H40            2.8308     6.1303    -1.2377 H       
  41 H41            1.1121     7.3398     0.0413 H       
  42 H42           -0.5954     6.0975     1.3038 H       
  43 H43           -0.5953     3.6375     1.2883 H       
  44 H44           13.7910     1.2251     1.0009 H       
  45 H45           12.3720     0.4525     0.2541 H       
  46 H46           12.5811     2.2172     0.1524 H       
  47 H47           12.3089     2.3911     2.6109 H       
  48 H48           12.0998     0.6264     2.7126 H       
@<TRIPOS>BOND
   1    1    2 ar
   2    1    6 ar
   3    2    3 ar
   4    2   19 1
   5    3    4 ar
   6    4    5 ar
   7    4   29 1
   8    5    6 ar
   9    5    7 1
  10    6   21 1
  11    7    8 1
  12    7   30 1
  13    7   31 1
  14    8    9 1
  15    9   10 ar
  16    9   14 ar
  17   10   11 ar
  18   10   32 1
  19   11   12 ar
  20   11   15 1
  21   12   13 ar
  22   12   17 1
  23   13   14 ar
  24   13   20 1
  25   14   33 1
  26   15   16 1
  27   15   34 1
  28   15   35 1
  29   16   17 am
  30   16   28 1
  31   17   18 2
  32   20   36 1
  33   20   37 1
  34   20   38 1
  35   21   22 ar
  36   21   26 ar
  37   22   23 ar
  38   22   39 1
  39   23   24 ar
  40   23   40 1
  41   24   25 ar
  42   24   41 1
  43   25   26 ar
  44   25   42 1
  45   26   43 1
  46   27   28 1
  47   27   44 1
  48   27   45 1
  49   27   46 1
  50   28   47 1
  51   28   48 1

#	End of record

