#	Name: ASD03430727
#	Creating user name:	WinNT
#	Creation time:	15. 06. 2019 20:41

#	Modifying user name:	WinNT
#	Modification time:	15. 06. 2019 20:41

#	Program:	/corina/corina34_cracker 3.40 0067  02.08.2006

@<TRIPOS>MOLECULE
ASD03430727
  51   56    0    0    0
SMALL
NO_CHARGES


@<TRIPOS>ATOM
   1 C1             0.0036     1.3684     0.0246 C.ar    
   2 C2             0.0090    -0.0175     0.0167 C.ar    
   3 C3             1.2065    -0.7095     0.0134 C.ar    
   4 C4             2.4072    -0.0155     0.0203 C.ar    
   5 C5             2.4058     1.3717     0.0294 C.ar    
   6 C6             1.2061     2.0657     0.0336 C.ar    
   7 C7             1.2029    -2.2140    -0.0020 C.3     
   8 O8             2.4930    -2.7142     0.3446 O.3     
   9 C9            -0.7340    -3.4825     0.1082 C.ar    
  10 C10            0.1518    -2.7564     0.9144 C.ar    
  11 C11            0.8018    -2.7169    -1.3724 C.2     
  12 N12           -0.3272    -3.4386    -1.2135 N.am    
  13 O13            1.3847    -2.5099    -2.4157 O.2     
  14 C14           -0.0218    -2.6403     2.2762 C.ar    
  15 C15           -1.1266    -3.2804     2.8285 C.ar    
  16 C16           -2.0072    -3.9978     2.0455 C.ar    
  17 C17           -1.8392    -4.1189     0.6746 C.ar    
  18 C18           -1.0384    -4.0984    -2.3113 C.3     
  19 O19            1.2218     3.4266     0.0519 O.3     
  20 O20           -1.1859     2.0318     0.0179 O.3     
  21 C21           -1.1565     3.4097     0.4055 C.3     
  22 C22            0.0099     4.0896    -0.3237 C.3     
  23 C23           -2.1562    -3.2093    -2.7919 C.ar    
  24 N24           -3.1569    -2.9250    -1.9818 N.ar    
  25 C25           -4.1564    -2.1517    -2.3591 C.ar    
  26 C26           -4.1892    -1.6081    -3.6291 C.ar    
  27 C27           -3.1541    -1.8847    -4.5094 C.ar    
  28 C28           -2.1178    -2.6967    -4.0751 C.ar    
  29 O29            3.5902    -0.6876     0.0217 O.3     
  30 C30            3.5560    -2.0644    -0.3640 C.3     
  31 C31           -0.9699    -3.0260    -4.9942 C.3     
  32 F32           -1.2234    -2.4980    -6.2647 F       
  33 F33            0.2091    -2.4709    -4.4853 F       
  34 F34           -0.8296    -4.4150    -5.0859 F       
  35 H35           -0.9254    -0.5592     0.0134 H       
  36 H36            3.3411     1.9117     0.0336 H       
  37 H37            0.6687    -2.0780     2.8873 H       
  38 H38           -1.2987    -3.2140     3.8926 H       
  39 H39           -2.8527    -4.4792     2.5143 H       
  40 H40           -2.5347    -4.6822     0.0702 H       
  41 H41           -0.3458    -4.2869    -3.1316 H       
  42 H42           -1.4516    -5.0440    -1.9602 H       
  43 H43           -2.0943     3.8901     0.1266 H       
  44 H44           -1.0104     3.4853     1.4830 H       
  45 H45            0.0609     5.1398    -0.0364 H       
  46 H46           -0.1335     4.0094    -1.4013 H       
  47 H47           -4.9588    -1.9411    -1.6675 H       
  48 H48           -5.0108    -0.9761    -3.9323 H       
  49 H49           -3.1532    -1.4741    -5.5083 H       
  50 H50            4.5054    -2.5379    -0.1136 H       
  51 H51            3.3794    -2.1392    -1.4370 H       
@<TRIPOS>BOND
   1    1    2 ar
   2    1    6 ar
   3    1   20 1
   4    2    3 ar
   5    2   35 1
   6    3    4 ar
   7    3    7 1
   8    4    5 ar
   9    4   29 1
  10    5    6 ar
  11    5   36 1
  12    6   19 1
  13    7    8 1
  14    7   10 1
  15    7   11 1
  16    8   30 1
  17    9   10 ar
  18    9   12 1
  19    9   17 ar
  20   10   14 ar
  21   11   12 am
  22   11   13 2
  23   12   18 1
  24   14   15 ar
  25   14   37 1
  26   15   16 ar
  27   15   38 1
  28   16   17 ar
  29   16   39 1
  30   17   40 1
  31   18   23 1
  32   18   41 1
  33   18   42 1
  34   19   22 1
  35   20   21 1
  36   21   22 1
  37   21   43 1
  38   21   44 1
  39   22   45 1
  40   22   46 1
  41   23   24 ar
  42   23   28 ar
  43   24   25 ar
  44   25   26 ar
  45   25   47 1
  46   26   27 ar
  47   26   48 1
  48   27   28 ar
  49   27   49 1
  50   28   31 1
  51   29   30 1
  52   30   50 1
  53   30   51 1
  54   31   32 1
  55   31   33 1
  56   31   34 1

#	End of record

