#	Name: ASD04882092
#	Creating user name:	WinNT
#	Creation time:	15. 06. 2019 20:54

#	Modifying user name:	WinNT
#	Modification time:	15. 06. 2019 20:54

#	Program:	/corina/corina34_cracker 3.40 0067  02.08.2006

@<TRIPOS>MOLECULE
ASD04882092
  80   84    0    0    0
SMALL
NO_CHARGES


@<TRIPOS>ATOM
   1 C1             2.2065     1.8456    -0.7984 C.ar    
   2 C2             2.2413     0.4680    -0.7103 C.ar    
   3 C3             1.0591    -0.2473    -0.5659 C.ar    
   4 C4            -0.1542     0.4264    -0.5106 C.ar    
   5 C5            -0.1818     1.8045    -0.5993 C.ar    
   6 C6             0.9966     2.5133    -0.7430 C.ar    
   7 C7            -1.4392    -0.3454    -0.3546 C.3     
   8 N8             1.0906    -1.6409    -0.4769 N.3     
   9 C9             0.6768    -2.0928     0.8588 C.3     
  10 C10            2.4228    -2.1602    -0.8163 C.3     
  11 C11            2.3942    -3.6902    -0.7844 C.3     
  12 N12            1.9804    -4.1421     0.5513 N.3     
  13 C13            0.6482    -3.6227     0.8906 C.3     
  14 C14            2.0118    -5.5313     0.6399 C.ar    
  15 C15            1.2232    -6.2989    -0.2089 C.ar    
  16 C16            2.8410    -6.1523     1.5788 C.ar    
  17 C17            2.8723    -7.5310     1.6662 C.ar    
  18 C18            2.0740    -8.3006     0.8148 C.ar    
  19 C19            1.2512    -7.6736    -0.1246 C.ar    
  20 N20            3.6398    -5.3775     2.4299 N.am    
  21 C21            3.8960    -5.8004     3.6836 C.2     
  22 C22            4.6427    -4.9322     4.6184 C.ar    
  23 O23            3.5131    -6.8960     4.0458 O.2     
  24 C24            2.1044    -9.7729     0.9042 C.2     
  25 O25            2.8242   -10.3177     1.7188 O.2     
  26 N26            1.3345   -10.5139     0.0829 N.am    
  27 C27            1.3647   -11.9759     0.1717 C.3     
  28 C28            0.4065   -12.5696    -0.8628 C.3     
  29 C29            0.4381   -14.0965    -0.7700 C.3     
  30 N30           -0.4794   -14.6650    -1.7606 N.am    
  31 C31           -0.1006   -15.0171    -3.1341 C.3     
  32 C32           -1.4313   -15.1503    -3.9074 C.3     
  33 C33           -2.4217   -15.5001    -2.7726 C.3     
  34 C34           -1.7750   -14.9363    -1.5266 C.2     
  35 O35           -2.3444   -14.7495    -0.4722 O.2     
  36 C36            4.9098    -5.3672     5.9178 C.ar    
  37 C37            5.0886    -3.6763     4.2040 C.ar    
  38 C38            5.7849    -2.8708     5.0815 C.ar    
  39 C39            6.0417    -3.3058     6.3694 C.ar    
  40 C40            5.6069    -4.5521     6.7850 C.ar    
  41 C41            4.4371    -6.7241     6.3721 C.3     
  42 F42            4.8220    -6.9312     7.7010 F       
  43 F43            3.0429    -6.7889     6.2749 F       
  44 F44            5.0074    -7.7119     5.5620 F       
  45 H45            3.1255     2.4026    -0.9061 H       
  46 H46            3.1864    -0.0528    -0.7539 H       
  47 H47           -1.1250     2.3290    -0.5565 H       
  48 H48            0.9722     3.5908    -0.8118 H       
  49 H49           -1.6311    -0.5214     0.7039 H       
  50 H50           -2.2616     0.2279    -0.7825 H       
  51 H51           -1.3543    -1.3009    -0.8722 H       
  52 H52            1.3850    -1.7268     1.6021 H       
  53 H53           -0.3175    -1.7058     1.0818 H       
  54 H54            2.7014    -1.8224    -1.8144 H       
  55 H55            3.1508    -1.7950    -0.0920 H       
  56 H56            1.6860    -4.0562    -1.5278 H       
  57 H57            3.3885    -4.0771    -1.0075 H       
  58 H58            0.3696    -3.9606     1.8888 H       
  59 H59           -0.0798    -3.9880     0.1663 H       
  60 H60            0.5867    -5.8165    -0.9360 H       
  61 H61            3.5123    -8.0129     2.3905 H       
  62 H62            0.6338    -8.2672    -0.7826 H       
  63 H63            4.0084    -4.5367     2.1168 H       
  64 H64            0.7603   -10.0793    -0.5669 H       
  65 H65            2.3765   -12.3310    -0.0243 H       
  66 H66            1.0581   -12.2857     1.1708 H       
  67 H67           -0.6052   -12.2146    -0.6668 H       
  68 H68            0.7131   -12.2599    -1.8619 H       
  69 H69            1.4498   -14.4515    -0.9660 H       
  70 H70            0.1315   -14.4062     0.2290 H       
  71 H71            0.5119   -14.2282    -3.5705 H       
  72 H72            0.4387   -15.9643    -3.1455 H       
  73 H73           -1.7014   -14.2080    -4.3841 H       
  74 H74           -1.3777   -15.9553    -4.6403 H       
  75 H75           -3.3882   -15.0286    -2.9509 H       
  76 H76           -2.5340   -16.5807    -2.6839 H       
  77 H77            4.8894    -3.3358     3.1986 H       
  78 H78            6.1306    -1.8987     4.7622 H       
  79 H79            6.5875    -2.6716     7.0523 H       
  80 H80            5.8107    -4.8857     7.7918 H       
@<TRIPOS>BOND
   1    1    2 ar
   2    1    6 ar
   3    1   45 1
   4    2    3 ar
   5    2   46 1
   6    3    4 ar
   7    3    8 1
   8    4    5 ar
   9    4    7 1
  10    5    6 ar
  11    5   47 1
  12    6   48 1
  13    7   49 1
  14    7   50 1
  15    7   51 1
  16    8    9 1
  17    8   10 1
  18    9   13 1
  19    9   52 1
  20    9   53 1
  21   10   11 1
  22   10   54 1
  23   10   55 1
  24   11   12 1
  25   11   56 1
  26   11   57 1
  27   12   13 1
  28   12   14 1
  29   13   58 1
  30   13   59 1
  31   14   15 ar
  32   14   16 ar
  33   15   19 ar
  34   15   60 1
  35   16   17 ar
  36   16   20 1
  37   17   18 ar
  38   17   61 1
  39   18   19 ar
  40   18   24 1
  41   19   62 1
  42   20   21 am
  43   20   63 1
  44   21   22 1
  45   21   23 2
  46   22   36 ar
  47   22   37 ar
  48   24   25 2
  49   24   26 am
  50   26   27 1
  51   26   64 1
  52   27   28 1
  53   27   65 1
  54   27   66 1
  55   28   29 1
  56   28   67 1
  57   28   68 1
  58   29   30 1
  59   29   69 1
  60   29   70 1
  61   30   31 1
  62   30   34 am
  63   31   32 1
  64   31   71 1
  65   31   72 1
  66   32   33 1
  67   32   73 1
  68   32   74 1
  69   33   34 1
  70   33   75 1
  71   33   76 1
  72   34   35 2
  73   36   41 1
  74   36   40 ar
  75   37   38 ar
  76   37   77 1
  77   38   39 ar
  78   38   78 1
  79   39   40 ar
  80   39   79 1
  81   40   80 1
  82   41   42 1
  83   41   43 1
  84   41   44 1

#	End of record

