#	Name: ASD01150041
#	Creating user name:	WinNT
#	Creation time:	15. 06. 2019 19:03

#	Modifying user name:	WinNT
#	Modification time:	15. 06. 2019 19:03

#	Program:	/corina/corina34_cracker 3.40 0067  02.08.2006

@<TRIPOS>MOLECULE
ASD01150041
  42   45    0    0    0
SMALL
NO_CHARGES


@<TRIPOS>ATOM
   1 C1            -0.0158     1.3138     0.0093 C.ar    
   2 N2             0.0021    -0.0041     0.0020 N.ar    
   3 C3             1.1446    -0.6733    -0.0125 C.ar    
   4 C4             2.3433     0.0356    -0.0202 C.ar    
   5 C5             2.2819     1.4415    -0.0121 C.ar    
   6 N6             1.0907     2.0298     0.0025 N.ar    
   7 C7             3.6471    -0.6709    -0.0360 C.ar    
   8 C8             3.9017    -1.6901     0.8800 C.ar    
   9 C9             5.1166    -2.3444     0.8603 C.ar    
  10 C10            6.0810    -1.9901    -0.0659 C.ar    
  11 C11            5.8340    -0.9794    -0.9773 C.ar    
  12 C12            4.6204    -0.3221    -0.9707 C.ar    
  13 C13            7.4062    -2.7077    -0.0816 C.3     
  14 F14            7.3272    -3.8142    -0.9340 F       
  15 F15            8.4022    -1.8376    -0.5379 F       
  16 F16            7.7192    -3.1373     1.2124 F       
  17 N17            3.4407     2.1972    -0.0187 N.pl3   
  18 C18            3.3613     3.6600    -0.0101 C.3     
  19 C19            3.2293     4.2010    -1.4521 C.3     
  20 C20            4.4936     5.0905    -1.6567 C.3     
  21 C21            4.2488     6.3322    -0.7458 C.3     
  22 C22            4.3808     5.7912     0.6962 C.3     
  23 C23            4.6929     4.2736     0.5208 C.3     
  24 C24            5.5445     4.3030    -0.7972 C.3     
  25 H25           -0.9680     1.8234     0.0165 H       
  26 H26            1.1468    -1.7533    -0.0180 H       
  27 H27            3.1497    -1.9671     1.6040 H       
  28 H28            5.3150    -3.1343     1.5696 H       
  29 H29            6.5906    -0.7069    -1.6983 H       
  30 H30            4.4286     0.4669    -1.6828 H       
  31 H31            4.3058     1.7585    -0.0290 H       
  32 H32            2.5195     3.9905     0.5983 H       
  33 H33            3.2235     3.3786    -2.1674 H       
  34 H34            2.3236     4.7992    -1.5521 H       
  35 H35            4.7637     5.3040    -2.6909 H       
  36 H36            5.0022     7.0968    -0.9353 H       
  37 H37            3.2489     6.7335    -0.9111 H       
  38 H38            5.1991     6.2898     1.2157 H       
  39 H39            3.4458     5.9265     1.2399 H       
  40 H40            5.1366     3.7756     1.3829 H       
  41 H41            5.7257     3.3022    -1.1893 H       
  42 H42            6.4719     4.8620    -0.6724 H       
@<TRIPOS>BOND
   1    1    2 ar
   2    1    6 ar
   3    1   25 1
   4    2    3 ar
   5    3    4 ar
   6    3   26 1
   7    4    5 ar
   8    4    7 1
   9    5    6 ar
  10    5   17 1
  11    7    8 ar
  12    7   12 ar
  13    8    9 ar
  14    8   27 1
  15    9   10 ar
  16    9   28 1
  17   10   11 ar
  18   10   13 1
  19   11   12 ar
  20   11   29 1
  21   12   30 1
  22   13   14 1
  23   13   15 1
  24   13   16 1
  25   17   18 1
  26   17   31 1
  27   18   19 1
  28   18   23 1
  29   18   32 1
  30   19   20 1
  31   19   33 1
  32   19   34 1
  33   20   21 1
  34   20   24 1
  35   20   35 1
  36   21   22 1
  37   21   36 1
  38   21   37 1
  39   22   23 1
  40   22   38 1
  41   22   39 1
  42   23   24 1
  43   23   40 1
  44   24   41 1
  45   24   42 1

#	End of record

