#	Name: ASD02320066
#	Creating user name:	WinNT
#	Creation time:	15. 06. 2019 20:20

#	Modifying user name:	WinNT
#	Modification time:	15. 06. 2019 20:20

#	Program:	/corina/corina34_cracker 3.40 0067  02.08.2006

@<TRIPOS>MOLECULE
ASD02320066
  90   87    0    0    0
SMALL
NO_CHARGES


@<TRIPOS>ATOM
   1 C1            -0.0164     1.3560     0.0095 C.2     
   2 C2             0.0021    -0.0041     0.0020 C.2     
   3 O3             1.1438    -0.7103    -0.0122 O.3     
   4 C4             2.3572    -0.1189    -0.0208 C.ar    
   5 C5             1.2051     2.0703     0.0017 C.2     
   6 C6            -1.2815    -0.7309     0.0104 C.ar    
   7 C7            -1.2955    -2.1285     0.0030 C.ar    
   8 C8            -2.4962    -2.8031     0.0113 C.ar    
   9 C9            -3.6926    -2.0962     0.0270 C.ar    
  10 C10           -3.6833    -0.7066     0.0344 C.ar    
  11 C11           -2.4871    -0.0240     0.0315 C.ar    
  12 C12            3.5166    -0.8781    -0.0361 C.ar    
  13 C13            4.7548    -0.2541    -0.0452 C.ar    
  14 C14            4.8494     1.1330    -0.0384 C.ar    
  15 C15            3.7038     1.9073    -0.0232 C.ar    
  16 C16            2.4501     1.2838    -0.0145 C.ar    
  17 O17           -4.8740    -2.7652     0.0347 O.3     
  18 S18           -5.3991    -3.0781     1.4285 S.o2    
  19 O19           -6.4411    -4.0806     1.2689 O.co2   
  20 O20           -4.2717    -3.5804     2.1985 O.co2   
  21 O21           -5.9187    -1.8322     1.9705 O.co2   
  22 O22            1.2260     3.2906     0.0081 O.2     
  23 O23            3.7939     3.2614    -0.0161 O.3     
  24 O24            5.8857    -1.0049    -0.0602 O.3     
  25 S25            6.3877    -1.3401    -1.4574 S.o2    
  26 O26            7.3559    -2.4154    -1.3085 O.co2   
  27 O27            5.2277    -1.7533    -2.2319 O.co2   
  28 O28            6.9943    -0.1287    -1.9870 O.co2   
  29 O29            7.6285     8.0432    -0.0244 O.3     
  30 C30            7.7187     9.3973    -0.0174 C.ar    
  31 C31            8.9723    10.0209    -0.0314 C.ar    
  32 C32            6.5730    10.1717    -0.0021 C.ar    
  33 C33            6.6676    11.5588     0.0042 C.ar    
  34 C34            7.9058    12.1827    -0.0044 C.ar    
  35 C35            9.0651    11.4235    -0.0246 C.ar    
  36 C36           11.4386     9.9490    -0.0655 C.2     
  37 C37           10.2173     9.2345    -0.0530 C.2     
  38 O38           10.2784    12.0151    -0.0373 O.3     
  39 C39           11.4201    11.3090    -0.0564 C.2     
  40 C40           12.7035    12.0360    -0.0692 C.ar    
  41 C41           12.7175    13.4336    -0.0603 C.ar    
  42 C42           13.9181    14.1083    -0.0718 C.ar    
  43 C43           15.1145    13.4016    -0.0924 C.ar    
  44 C44           15.1053    12.0119    -0.1014 C.ar    
  45 C45           13.9093    11.3291    -0.0845 C.ar    
  46 O46           10.1965     8.0142    -0.0594 O.2     
  47 O47            5.5367    12.3096     0.0183 O.3     
  48 O48           16.2958    14.0706    -0.1042 O.3     
  49 S49           16.8532    14.3671     1.2807 S.o2    
  50 S50            5.0336    12.6448     1.4151 S.o2    
  51 O51           17.8912    15.3716     1.1089 O.co2   
  52 O52           15.7440    14.8598     2.0826 O.co2   
  53 O53           17.3851    13.1149     1.7956 O.co2   
  54 O54            3.6666    13.1195     1.2659 O.co2   
  55 O55            5.1034    11.4170     2.1920 O.co2   
  56 O56            5.9148    13.6753     1.9422 O.co2   
  57 C57            5.1074     3.8243    -0.0252 C.3     
  58 C58            5.0081     5.3510    -0.0154 C.3     
  59 C59            6.3151     7.4804    -0.0153 C.3     
  60 C60            6.4144     5.9536    -0.0251 C.3     
  61 H61           -0.9568     1.8870     0.0168 H       
  62 H62           -0.3662    -2.6786    -0.0096 H       
  63 H63           -2.5080    -3.8831     0.0053 H       
  64 H64           -4.6153    -0.1611     0.0462 H       
  65 H65           -2.4806     1.0560     0.0418 H       
  66 H66            3.4555    -1.9563    -0.0408 H       
  67 H67            5.8199     1.6068    -0.0448 H       
  68 H68            5.6025     9.6978     0.0047 H       
  69 H69            7.9669    13.2610     0.0002 H       
  70 H70           12.3790     9.4181    -0.0811 H       
  71 H71           11.7882    13.9836    -0.0447 H       
  72 H72           13.9298    15.1883    -0.0653 H       
  73 H73           16.0373    11.4665    -0.1177 H       
  74 H74           13.9030    10.2491    -0.0870 H       
  75 H75            5.6520     3.4899     0.8577 H       
  76 H76            5.6353     3.5003    -0.9221 H       
  77 H77            4.4634     5.6854    -0.8983 H       
  78 H78            4.4801     5.6750     0.8815 H       
  79 H79            5.7872     7.8044     0.8816 H       
  80 H80            5.7704     7.8147    -0.8983 H       
  81 H81            6.9590     5.6193     0.8578 H       
  82 H82            6.9423     5.6296    -0.9220 H       
  83 Na83          22.8912    20.3716     7.1985 Du      
  84 Na84          27.8912    25.3716    12.1985 Du      
  85 Na85          32.8912    30.3716    17.1985 Du      
  86 Na86          37.8912    35.3716    22.1985 Du      
  87 Na87          42.8912    40.3716    27.1985 Du      
  88 Na88          47.8912    45.3716    32.1985 Du      
  89 Na89          52.8912    50.3716    37.1985 Du      
  90 Na90          57.8912    55.3716    42.1985 Du      
@<TRIPOS>BOND
   1    1    2 2
   2    1    5 1
   3    1   61 1
   4    2    3 1
   5    2    6 1
   6    3    4 1
   7    4   12 ar
   8    4   16 ar
   9    5   22 2
  10    5   16 1
  11    6    7 ar
  12    6   11 ar
  13    7    8 ar
  14    7   62 1
  15    8    9 ar
  16    8   63 1
  17    9   10 ar
  18    9   17 1
  19   10   11 ar
  20   10   64 1
  21   11   65 1
  22   12   13 ar
  23   12   66 1
  24   13   14 ar
  25   13   24 1
  26   14   15 ar
  27   14   67 1
  28   15   16 ar
  29   15   23 1
  30   17   18 1
  31   18   19 ar
  32   18   20 ar
  33   18   21 ar
  34   23   57 1
  35   24   25 1
  36   25   26 ar
  37   25   27 ar
  38   25   28 ar
  39   29   30 1
  40   29   59 1
  41   30   32 ar
  42   30   31 ar
  43   31   35 ar
  44   31   37 1
  45   32   33 ar
  46   32   68 1
  47   33   34 ar
  48   33   47 1
  49   34   35 ar
  50   34   69 1
  51   35   38 1
  52   36   37 1
  53   36   39 2
  54   36   70 1
  55   37   46 2
  56   38   39 1
  57   39   40 1
  58   40   41 ar
  59   40   45 ar
  60   41   42 ar
  61   41   71 1
  62   42   43 ar
  63   42   72 1
  64   43   44 ar
  65   43   48 1
  66   44   45 ar
  67   44   73 1
  68   45   74 1
  69   47   50 1
  70   48   49 1
  71   49   51 ar
  72   49   52 ar
  73   49   53 ar
  74   50   54 ar
  75   50   55 ar
  76   50   56 ar
  77   57   58 1
  78   57   75 1
  79   57   76 1
  80   58   60 1
  81   58   77 1
  82   58   78 1
  83   59   60 1
  84   59   79 1
  85   59   80 1
  86   60   81 1
  87   60   82 1

#	End of record

