#	Name: ASD01910162
#	Creating user name:	WinNT
#	Creation time:	15. 06. 2019 19:55

#	Modifying user name:	WinNT
#	Modification time:	15. 06. 2019 19:55

#	Program:	/corina/corina34_cracker 3.40 0067  02.08.2006

@<TRIPOS>MOLECULE
ASD01910162
  41   43    0    0    0
SMALL
NO_CHARGES


@<TRIPOS>ATOM
   1 C1            -2.0361     1.4464     0.7240 C.2     
   2 C2            -2.0284    -0.0195     0.7493 C.2     
   3 N3            -1.1436    -0.7018    -0.0044 N.am    
   4 C4            -1.0719    -2.0950     0.0909 C.ar    
   5 C5            -2.2261    -2.8376     0.2944 C.ar    
   6 C6            -2.1507    -4.2202     0.3879 C.ar    
   7 C7            -0.9206    -4.8562     0.2775 C.ar    
   8 C8             0.2272    -4.1138     0.0753 C.ar    
   9 C9             0.1548    -2.7379    -0.0239 C.ar    
  10 N10           -3.3117    -4.9722     0.5934 N.am    
  11 C11           -3.4423    -6.1821     0.0141 C.2     
  12 C12           -4.7063    -6.9308     0.1467 C.ar    
  13 C13           -5.7705    -6.3897     0.8717 C.ar    
  14 C14           -6.9491    -7.0941     0.9914 C.ar    
  15 C15           -7.0836    -8.3375     0.3962 C.ar    
  16 C16           -6.0392    -8.8844    -0.3231 C.ar    
  17 C17           -4.8485    -8.1870    -0.4591 C.ar    
  18 O18           -3.8219    -8.7228    -1.1657 O.3     
  19 C19           -4.0357   -10.0118    -1.7445 C.3     
  20 O20           -2.8210    -0.6202     1.4509 O.2     
  21 O21           -2.5180    -6.6565    -0.6179 O.2     
  22 C22           -2.8746     2.2569     1.4347 C.2     
  23 C23           -2.5316     3.5782     1.1079 C.2     
  24 C24           -1.5118     3.5172     0.2234 C.2     
  25 O25           -1.2122     2.2312    -0.0010 O.3     
  26 H26           -0.5566    -0.2265    -0.6129 H       
  27 H27           -3.1812    -2.3407     0.3802 H       
  28 H28           -0.8612    -5.9321     0.3502 H       
  29 H29            1.1823    -4.6106    -0.0094 H       
  30 H30            1.0537    -2.1605    -0.1820 H       
  31 H31           -4.0230    -4.6231     1.1529 H       
  32 H32           -5.6698    -5.4208     1.3381 H       
  33 H33           -7.7713    -6.6749     1.5522 H       
  34 H34           -8.0106    -8.8827     0.4954 H       
  35 H35           -6.1515    -9.8548    -0.7838 H       
  36 H36           -4.2561   -10.7319    -0.9564 H       
  37 H37           -4.8752    -9.9639    -2.4381 H       
  38 H38           -3.1389   -10.3228    -2.2803 H       
  39 H39           -3.6512     1.9422     2.1161 H       
  40 H40           -2.9955     4.4749     1.4913 H       
  41 H41           -1.0167     4.3658    -0.2251 H       
@<TRIPOS>BOND
   1    1    2 1
   2    1   22 2
   3    1   25 1
   4    2    3 am
   5    2   20 2
   6    3    4 1
   7    3   26 1
   8    4    5 ar
   9    4    9 ar
  10    5    6 ar
  11    5   27 1
  12    6    7 ar
  13    6   10 1
  14    7    8 ar
  15    7   28 1
  16    8    9 ar
  17    8   29 1
  18    9   30 1
  19   10   11 am
  20   10   31 1
  21   11   12 1
  22   11   21 2
  23   12   13 ar
  24   12   17 ar
  25   13   14 ar
  26   13   32 1
  27   14   15 ar
  28   14   33 1
  29   15   16 ar
  30   15   34 1
  31   16   17 ar
  32   16   35 1
  33   17   18 1
  34   18   19 1
  35   19   36 1
  36   19   37 1
  37   19   38 1
  38   22   23 1
  39   22   39 1
  40   23   24 2
  41   23   40 1
  42   24   25 1
  43   24   41 1

#	End of record

