#	Name: ASD09900001
#	Creating user name:	WinNT
#	Creation time:	15. 06. 2019 21:24

#	Modifying user name:	WinNT
#	Modification time:	15. 06. 2019 21:24

#	Program:	/corina/corina34_cracker 3.40 0067  02.08.2006

@<TRIPOS>MOLECULE
ASD09900001
  30   32    0    0    0
SMALL
NO_CHARGES


@<TRIPOS>ATOM
   1 C1            -0.0028     1.3579    -0.2559 C.ar    
   2 C2             0.0137    -0.0282    -0.3498 C.ar    
   3 C3             1.2224    -0.7014    -0.4490 C.ar    
   4 C4             2.4139    -0.0070    -0.4551 C.ar    
   5 C5             2.4202     1.3834    -0.3622 C.ar    
   6 C6             1.2106     2.0743    -0.2625 C.ar    
   7 C7             1.1910     3.5460    -0.1652 C.2     
   8 C8            -0.0859     4.2678    -0.3670 C.ar    
   9 C9            -1.2947     3.5560    -0.3586 C.ar    
  10 C10           -1.2831     2.0910    -0.1551 C.2     
  11 C11           -0.0951     5.6471    -0.5660 C.ar    
  12 C12           -1.2931     6.3140    -0.7536 C.ar    
  13 C13           -2.4905     5.6254    -0.7460 C.ar    
  14 C14           -2.5059     4.2411    -0.5492 C.ar    
  15 C15           -3.7831     3.5068    -0.5410 C.2     
  16 C16           -4.1851     2.6810    -1.7358 C.3     
  17 O17           -4.5107     3.5668     0.4268 O.2     
  18 O18           -2.3119     1.4973     0.1004 O.2     
  19 O19            2.2117     4.1593     0.0784 O.2     
  20 O20            3.5941     2.0617    -0.3680 O.3     
  21 H21           -0.9140    -0.5812    -0.3452 H       
  22 H22            1.2305    -1.7789    -0.5216 H       
  23 H23            3.3477    -0.5441    -0.5321 H       
  24 H24            0.8345     6.1967    -0.5734 H       
  25 H25           -1.2919     7.3831    -0.9070 H       
  26 H26           -3.4184     6.1582    -0.8925 H       
  27 H27           -3.4116     2.7482    -2.5008 H       
  28 H28           -4.3081     1.6409    -1.4338 H       
  29 H29           -5.1265     3.0565    -2.1369 H       
  30 H30            3.8961     2.3175    -1.2503 H       
@<TRIPOS>BOND
   1    1    2 ar
   2    1    6 ar
   3    1   10 1
   4    2    3 ar
   5    2   21 1
   6    3    4 ar
   7    3   22 1
   8    4    5 ar
   9    4   23 1
  10    5    6 ar
  11    5   20 1
  12    6    7 1
  13    7    8 1
  14    7   19 2
  15    8    9 ar
  16    8   11 ar
  17    9   10 1
  18    9   14 ar
  19   10   18 2
  20   11   12 ar
  21   11   24 1
  22   12   13 ar
  23   12   25 1
  24   13   14 ar
  25   13   26 1
  26   14   15 1
  27   15   16 1
  28   15   17 2
  29   16   27 1
  30   16   28 1
  31   16   29 1
  32   20   30 1

#	End of record

