#	Name: ASD09530034
#	Creating user name:	WinNT
#	Creation time:	15. 06. 2019 21:22

#	Modifying user name:	WinNT
#	Modification time:	15. 06. 2019 21:22

#	Program:	/corina/corina34_cracker 3.40 0067  02.08.2006

@<TRIPOS>MOLECULE
ASD09530034
  54   57    0    0    0
SMALL
NO_CHARGES


@<TRIPOS>ATOM
   1 C1            -0.0168     1.3843     0.0097 C.ar    
   2 C2             0.0021    -0.0041     0.0020 C.ar    
   3 C3             1.2154    -0.6790    -0.0132 C.ar    
   4 C4             2.3995     0.0320    -0.0207 C.ar    
   5 C5             2.3774     1.4146    -0.0130 C.ar    
   6 C6             1.1707     2.0897     0.0021 C.ar    
   7 C7             3.6712     2.1873    -0.0212 C.3     
   8 C8             4.0889     2.4525    -1.4447 C.2     
   9 N9             5.2242     3.1333    -1.6982 N.am    
  10 O10            3.4035     2.0534    -2.3622 O.2     
  11 C11            5.6302     3.3911    -3.0820 C.3     
  12 C12            6.5080     4.6152    -3.1282 C.ar    
  13 N13            7.1870     4.9695    -2.0549 N.ar    
  14 C14            7.9677     6.0319    -2.0465 C.ar    
  15 C15            8.1019     6.8207    -3.1796 C.ar    
  16 C16            7.3995     6.4757    -4.3301 C.ar    
  17 C17            6.5949     5.3484    -4.2971 C.ar    
  18 O18            8.9075     7.9151    -3.1660 O.3     
  19 C19            9.5933     8.2008    -1.9453 C.3     
  20 C20           10.4451     9.4596    -2.1214 C.3     
  21 C21            6.4062     2.1866    -3.6186 C.3     
  22 F22            9.6194    10.5383    -2.4559 F       
  23 F23           11.1165     9.7392    -0.9263 F       
  24 F24           11.3781     9.2522    -3.1430 F       
  25 N25           -1.2007    -0.7224     0.0101 N.pl3   
  26 C26           -1.5160    -1.7449    -0.8558 C.ar    
  27 C27           -2.8057    -2.1923    -0.5111 C.ar    
  28 C28           -3.2374    -1.3671     0.6188 C.2     
  29 C29           -2.2352    -0.5148     0.8854 C.2     
  30 N30           -0.8653    -2.3170    -1.8599 N.ar    
  31 C31           -1.3938    -3.3026    -2.5535 C.ar    
  32 C32           -2.6593    -3.7932    -2.2696 C.ar    
  33 C33           -3.3861    -3.2372    -1.2338 C.ar    
  34 H34           -0.9590     1.9121     0.0170 H       
  35 H35            1.2333    -1.7588    -0.0188 H       
  36 H36            3.3435    -0.4924    -0.0322 H       
  37 H37            1.1567     3.1696     0.0080 H       
  38 H38            3.5318     3.1349     0.4990 H       
  39 H39            4.4443     1.6068     0.4821 H       
  40 H40            5.7724     3.4525    -0.9644 H       
  41 H41            4.7447     3.5556    -3.6958 H       
  42 H42            8.5081     6.2909    -1.1480 H       
  43 H43            7.4830     7.0697    -5.2282 H       
  44 H44            6.0353     5.0508    -5.1715 H       
  45 H45            8.8664     8.3624    -1.1494 H       
  46 H46           10.2366     7.3604    -1.6847 H       
  47 H47            5.7713     1.3012    -3.5852 H       
  48 H48            6.7083     2.3784    -4.6482 H       
  49 H49            7.2917     2.0221    -3.0048 H       
  50 H50           -4.1803    -1.4345     1.1410 H       
  51 H51           -2.2453     0.2289     1.6685 H       
  52 H52           -0.8285    -3.7396    -3.3634 H       
  53 H53           -3.0733    -4.6025    -2.8528 H       
  54 H54           -4.3741    -3.5996    -0.9908 H       
@<TRIPOS>BOND
   1    1    2 ar
   2    1    6 ar
   3    1   34 1
   4    2    3 ar
   5    2   25 1
   6    3    4 ar
   7    3   35 1
   8    4    5 ar
   9    4   36 1
  10    5    6 ar
  11    5    7 1
  12    6   37 1
  13    7    8 1
  14    7   38 1
  15    7   39 1
  16    8    9 am
  17    8   10 2
  18    9   11 1
  19    9   40 1
  20   11   12 1
  21   11   21 1
  22   11   41 1
  23   12   13 ar
  24   12   17 ar
  25   13   14 ar
  26   14   15 ar
  27   14   42 1
  28   15   16 ar
  29   15   18 1
  30   16   17 ar
  31   16   43 1
  32   17   44 1
  33   18   19 1
  34   19   20 1
  35   19   45 1
  36   19   46 1
  37   20   22 1
  38   20   23 1
  39   20   24 1
  40   21   47 1
  41   21   48 1
  42   21   49 1
  43   25   26 1
  44   25   29 1
  45   26   27 ar
  46   26   30 ar
  47   27   28 1
  48   27   33 ar
  49   28   29 2
  50   28   50 1
  51   29   51 1
  52   30   31 ar
  53   31   32 ar
  54   31   52 1
  55   32   33 ar
  56   32   53 1
  57   33   54 1

#	End of record

