#	Name: ASD09740218
#	Creating user name:	WinNT
#	Creation time:	15. 06. 2019 21:22

#	Modifying user name:	WinNT
#	Modification time:	15. 06. 2019 21:22

#	Program:	/corina/corina34_cracker 3.40 0067  02.08.2006

@<TRIPOS>MOLECULE
ASD09740218
  57   60    0    0    0
SMALL
NO_CHARGES


@<TRIPOS>ATOM
   1 N1             0.1774     1.1387    -0.1266 N.2     
   2 O2             0.3045    -0.0666    -0.0844 O.3     
   3 C3             1.3493     1.7205    -0.1149 C.2     
   4 N4             2.2821     0.7470    -0.0593 N.2     
   5 C5             1.6071    -0.3877    -0.0403 C.2     
   6 C6             2.1763    -1.7492     0.0184 C.ar    
   7 C7             1.6055     3.1819    -0.1557 C.ar    
   8 C8             1.3309    -2.8614     0.0322 C.ar    
   9 C9             3.5605    -1.9278     0.0543 C.ar    
  10 C10            4.0905    -3.1997     0.1086 C.ar    
  11 C11            3.2510    -4.3041     0.1277 C.ar    
  12 C12            1.8682    -4.1330     0.0872 C.ar    
  13 C13            0.8765     4.0403     0.6667 C.ar    
  14 C14            1.1135     5.3963     0.6301 C.ar    
  15 C15            2.0847     5.9119    -0.2314 C.ar    
  16 C16            2.8141     5.0513    -1.0545 C.ar    
  17 C17            2.5787     3.6947    -1.0121 C.ar    
  18 O18            1.0480    -5.2176     0.1060 O.3     
  19 C19           -0.3584    -4.9682     0.0621 C.3     
  20 C20           -1.1135    -6.2986     0.0914 C.3     
  21 O21            3.7780    -5.5553     0.1808 O.3     
  22 C22            5.2029    -5.6582     0.2147 C.3     
  23 C23            5.6065    -7.1329     0.2726 C.3     
  24 N24            1.6352     8.1971     0.5223 N.am    
  25 C25            3.3660     2.7656    -1.8998 C.3     
  26 C26            2.3398     7.3670    -0.2721 C.2     
  27 O27            3.1850     7.8151    -1.0219 O.2     
  28 C28            1.8017     9.5771     0.4107 C.ar    
  29 C29            0.7232    10.4438     0.5825 C.ar    
  30 C30            0.9298    11.8026     0.4645 C.ar    
  31 N31            2.1283    12.2835     0.1926 N.ar    
  32 C32            3.1737    11.4962     0.0231 C.ar    
  33 C33            3.0521    10.1263     0.1303 C.ar    
  34 H34            0.2598    -2.7274     0.0004 H       
  35 H35            4.2163    -1.0698     0.0392 H       
  36 H36            5.1615    -3.3365     0.1360 H       
  37 H37            0.1254     3.6414     1.3324 H       
  38 H38            0.5485     6.0609     1.2669 H       
  39 H39            3.5652     5.4487    -1.7210 H       
  40 H40           -0.6479    -4.3671     0.9240 H       
  41 H41           -0.6038    -4.4313    -0.8543 H       
  42 H42           -2.1862    -6.1084     0.0578 H       
  43 H43           -0.8240    -6.8998    -0.7706 H       
  44 H44           -0.8681    -6.8355     1.0077 H       
  45 H45            5.6215    -5.2020    -0.6824 H       
  46 H46            5.5836    -5.1424     1.0962 H       
  47 H47            5.1878    -7.5892     1.1697 H       
  48 H48            5.2257    -7.6487    -0.6089 H       
  49 H49            6.6933    -7.2114     0.2984 H       
  50 H50            1.0123     7.8346     1.1715 H       
  51 H51            4.2134     2.3637    -1.3445 H       
  52 H52            2.7254     1.9470    -2.2279 H       
  53 H53            3.7285     3.3141    -2.7692 H       
  54 H54           -0.2603    10.0568     0.8046 H       
  55 H55            0.1001    12.4814     0.5960 H       
  56 H56            4.1376    11.9301    -0.1983 H       
  57 H57            3.9117     9.4877    -0.0095 H       
@<TRIPOS>BOND
   1    1    2 1
   2    1    3 2
   3    2    5 1
   4    3    4 1
   5    3    7 1
   6    4    5 2
   7    5    6 1
   8    6    8 ar
   9    6    9 ar
  10    7   13 ar
  11    7   17 ar
  12    8   12 ar
  13    8   34 1
  14    9   10 ar
  15    9   35 1
  16   10   11 ar
  17   10   36 1
  18   11   12 ar
  19   11   21 1
  20   12   18 1
  21   13   14 ar
  22   13   37 1
  23   14   15 ar
  24   14   38 1
  25   15   16 ar
  26   15   26 1
  27   16   17 ar
  28   16   39 1
  29   17   25 1
  30   18   19 1
  31   19   20 1
  32   19   40 1
  33   19   41 1
  34   20   42 1
  35   20   43 1
  36   20   44 1
  37   21   22 1
  38   22   23 1
  39   22   45 1
  40   22   46 1
  41   23   47 1
  42   23   48 1
  43   23   49 1
  44   24   28 1
  45   24   26 am
  46   24   50 1
  47   25   51 1
  48   25   52 1
  49   25   53 1
  50   26   27 2
  51   28   29 ar
  52   28   33 ar
  53   29   30 ar
  54   29   54 1
  55   30   31 ar
  56   30   55 1
  57   31   32 ar
  58   32   33 ar
  59   32   56 1
  60   33   57 1

#	End of record

