#	Name: ASD05430372
#	Creating user name:	WinNT
#	Creation time:	15. 06. 2019 21:00

#	Modifying user name:	WinNT
#	Modification time:	15. 06. 2019 21:00

#	Program:	/corina/corina34_cracker 3.40 0067  02.08.2006

@<TRIPOS>MOLECULE
ASD05430372
  64   68    0    0    0
SMALL
NO_CHARGES


@<TRIPOS>ATOM
   1 C1            -0.8744     0.0838    -0.4923 C.ar    
   2 C2             0.1299     0.6965     0.2567 C.ar    
   3 C3            -0.1285     1.8822     0.9327 C.ar    
   4 C4            -1.3781     2.4584     0.8669 C.ar    
   5 C5            -2.3903     1.8495     0.1176 C.ar    
   6 C6            -2.1287     0.6589    -0.5675 C.ar    
   7 C7            -4.8191     1.6859    -0.0691 C.2     
   8 C8            -3.7261     2.4635     0.0461 C.2     
   9 N9            -7.2349     1.5962     0.2755 N.pl3   
  10 C10           -6.1574     2.2427    -0.3176 C.2     
  11 C11           -7.9444     2.6712     2.3112 C.ar    
  12 C12           -6.6595     2.4390     2.7653 C.ar    
  13 C13           -8.9029     3.1725     3.1720 C.ar    
  14 C14           -8.5775     3.4426     4.4877 C.ar    
  15 C15           -7.2909     3.2104     4.9437 C.ar    
  16 C16           -6.3319     2.7078     4.0807 C.ar    
  17 F17           -6.9715     3.4744     6.2296 F       
  18 O18           -0.6179    -1.0764    -1.1530 O.3     
  19 C19           -1.6930    -1.6486    -1.9006 C.3     
  20 C20            2.6000     0.7441     0.1073 C.2     
  21 N21            1.4023     0.1144     0.3279 N.pl3   
  22 C22            3.5640    -0.1803     0.2793 C.2     
  23 N23            2.9769    -1.3439     0.5961 N.2     
  24 C24            1.6823    -1.1804     0.6284 C.2     
  25 C25            5.0464     0.0523     0.1394 C.3     
  26 N26           -7.2239     0.2308     0.2714 N.3     
  27 C27           -5.9800    -0.3017     0.8418 C.3     
  28 C28           -4.7564     0.1698     0.0493 C.3     
  29 C29           -7.4695    -0.3126    -1.0705 C.3     
  30 C30           -8.2988     2.3835     0.8750 C.3     
  31 C31           -8.4930     3.7101     0.1480 C.3     
  32 C32           -7.7653     3.7512    -1.1882 C.3     
  33 N33           -6.3743     3.2985    -1.0437 N.2     
  34 C34           -9.6120     1.6022     0.8403 C.3     
  35 H35            0.6521     2.3534     1.5116 H       
  36 H36           -1.5764     3.3799     1.3940 H       
  37 H37           -2.9074     0.1856    -1.1471 H       
  38 H38           -3.8294     3.5378     0.0859 H       
  39 H39           -5.9116     2.0469     2.0920 H       
  40 H40           -9.9064     3.3536     2.8161 H       
  41 H41           -9.3263     3.8349     5.1598 H       
  42 H42           -5.3281     2.5259     4.4354 H       
  43 H43           -2.5237    -1.8706    -1.2306 H       
  44 H44           -2.0205    -0.9430    -2.6641 H       
  45 H45           -1.3548    -2.5687    -2.3772 H       
  46 H46            2.7427     1.7812    -0.1579 H       
  47 H47            0.9556    -1.9462     0.8559 H       
  48 H48            5.4596     0.3520     1.1025 H       
  49 H49            5.5287    -0.8671    -0.1926 H       
  50 H50            5.2230     0.8401    -0.5928 H       
  51 H51           -5.8898     0.0325     1.8780 H       
  52 H52           -6.0199    -1.3936     0.8292 H       
  53 H53           -4.7381    -0.2838    -0.9405 H       
  54 H54           -3.8436    -0.1137     0.5844 H       
  55 H55           -6.6943     0.0378    -1.7519 H       
  56 H56           -7.4526    -1.4017    -1.0301 H       
  57 H57           -8.4440     0.0227    -1.4256 H       
  58 H58           -9.5581     3.8636    -0.0237 H       
  59 H59           -8.1172     4.5146     0.7801 H       
  60 H60           -8.2806     3.1052    -1.8988 H       
  61 H61           -7.7703     4.7740    -1.5673 H       
  62 H62           -9.4966     0.6727     1.3977 H       
  63 H63          -10.4030     2.2009     1.2919 H       
  64 H64           -9.8729     1.3758    -0.1936 H       
@<TRIPOS>BOND
   1    1    2 ar
   2    1   18 1
   3    1    6 ar
   4    2    3 ar
   5    2   21 1
   6    3    4 ar
   7    3   35 1
   8    4    5 ar
   9    4   36 1
  10    5    6 ar
  11    5    8 1
  12    6   37 1
  13    7    8 2
  14    7   28 1
  15    7   10 1
  16    8   38 1
  17    9   10 1
  18    9   30 1
  19    9   26 1
  20   10   33 2
  21   11   12 ar
  22   11   13 ar
  23   11   30 1
  24   12   16 ar
  25   12   39 1
  26   13   14 ar
  27   13   40 1
  28   14   15 ar
  29   14   41 1
  30   15   16 ar
  31   15   17 1
  32   16   42 1
  33   18   19 1
  34   19   43 1
  35   19   44 1
  36   19   45 1
  37   20   21 1
  38   20   22 2
  39   20   46 1
  40   21   24 1
  41   22   23 1
  42   22   25 1
  43   23   24 2
  44   24   47 1
  45   25   48 1
  46   25   49 1
  47   25   50 1
  48   26   27 1
  49   26   29 1
  50   27   28 1
  51   27   51 1
  52   27   52 1
  53   28   53 1
  54   28   54 1
  55   29   55 1
  56   29   56 1
  57   29   57 1
  58   30   31 1
  59   30   34 1
  60   31   32 1
  61   31   58 1
  62   31   59 1
  63   32   33 1
  64   32   60 1
  65   32   61 1
  66   34   62 1
  67   34   63 1
  68   34   64 1

#	End of record

