#	Name: ASD01903038
#	Creating user name:	WinNT
#	Creation time:	15. 06. 2019 19:54

#	Modifying user name:	WinNT
#	Modification time:	15. 06. 2019 19:54

#	Program:	/corina/corina34_cracker 3.40 0067  02.08.2006

@<TRIPOS>MOLECULE
ASD01903038
  37   39    0    0    0
SMALL
NO_CHARGES


@<TRIPOS>ATOM
   1 C1             0.1114     1.3528    -0.5642 C.ar    
   2 C2             0.0916     0.0004    -0.2835 C.ar    
   3 C3             1.2791    -0.7191    -0.2494 C.ar    
   4 C4             2.4849    -0.0801    -0.4969 C.ar    
   5 C5             2.5057     1.2720    -0.7776 C.ar    
   6 C6             1.3192     1.9925    -0.8121 C.ar    
   7 N7             1.3402     3.3629    -1.0966 N.am    
   8 C8             2.2432     3.8568    -1.9667 C.2     
   9 O9             3.0901     3.1269    -2.4433 O.2     
  10 C10            2.2035     5.2892    -2.3422 C.ar    
  11 O11            1.2595    -2.0501     0.0273 O.3     
  12 N12            1.2762     6.0813    -1.8184 N.ar    
  13 C13            1.2063     7.3584    -2.1252 C.ar    
  14 C14            2.1047     7.9271    -3.0136 C.ar    
  15 C15            3.0896     7.1357    -3.5841 C.ar    
  16 C16            3.1433     5.7949    -3.2379 C.ar    
  17 Cl17          -1.4174    -0.7997     0.0270 Cl      
  18 C18            2.4478    -2.6996     0.1181 C.ar    
  19 C19            3.1109    -2.7643     1.3380 C.ar    
  20 C20            4.3171    -3.4220     1.4343 C.ar    
  21 C21            4.8741    -4.0253     0.3032 C.ar    
  22 C22            4.2038    -3.9583    -0.9214 C.ar    
  23 C23            2.9955    -3.3032    -1.0079 C.ar    
  24 C24            6.1283    -4.7097     0.3988 C.1     
  25 N25            7.1232    -5.2527     0.4746 N.1     
  26 H26           -0.8122     1.9117    -0.5952 H       
  27 H27            3.4080    -0.6401    -0.4699 H       
  28 H28            3.4450     1.7691    -0.9703 H       
  29 H29            0.7048     3.9572    -0.6674 H       
  30 H30            0.4378     7.9721    -1.6789 H       
  31 H31            2.0382     8.9766    -3.2594 H       
  32 H32            3.8016     7.5555    -4.2793 H       
  33 H33            3.8974     5.1492    -3.6631 H       
  34 H34            2.6798    -2.2978     2.2115 H       
  35 H35            4.8320    -3.4711     2.3823 H       
  36 H36            4.6308    -4.4232    -1.7977 H       
  37 H37            2.4769    -3.2509    -1.9538 H       
@<TRIPOS>BOND
   1    1    2 ar
   2    1    6 ar
   3    1   26 1
   4    2    3 ar
   5    2   17 1
   6    3    4 ar
   7    3   11 1
   8    4    5 ar
   9    4   27 1
  10    5    6 ar
  11    5   28 1
  12    6    7 1
  13    7    8 am
  14    7   29 1
  15    8    9 2
  16    8   10 1
  17   10   12 ar
  18   10   16 ar
  19   11   18 1
  20   12   13 ar
  21   13   14 ar
  22   13   30 1
  23   14   15 ar
  24   14   31 1
  25   15   16 ar
  26   15   32 1
  27   16   33 1
  28   18   19 ar
  29   18   23 ar
  30   19   20 ar
  31   19   34 1
  32   20   21 ar
  33   20   35 1
  34   21   22 ar
  35   21   24 1
  36   22   23 ar
  37   22   36 1
  38   23   37 1
  39   24   25 3

#	End of record

