#	Name: ASD03090073
#	Creating user name:	WinNT
#	Creation time:	15. 06. 2019 20:28

#	Modifying user name:	WinNT
#	Modification time:	15. 06. 2019 20:28

#	Program:	/corina/corina34_cracker 3.40 0067  02.08.2006

@<TRIPOS>MOLECULE
ASD03090073
  41   43    0    0    0
SMALL
NO_CHARGES


@<TRIPOS>ATOM
   1 C1             0.6155     1.1898    -1.6792 C.ar    
   2 C2             0.7505    -0.0758    -2.2149 C.ar    
   3 C3             1.9820    -0.5048    -2.6781 C.ar    
   4 C4             3.0814     0.3327    -2.6060 C.ar    
   5 C5             2.9522     1.5994    -2.0713 C.ar    
   6 C6             1.7173     2.0326    -1.6055 C.ar    
   7 N7             1.5834     3.3145    -1.0642 N.pl3   
   8 Cl8            2.1482    -2.0967    -3.3504 Cl      
   9 C9             0.3710     3.7383    -0.6075 C.2     
  10 C10            0.2643     4.9383     0.0288 C.2     
  11 C11            1.4672     5.7228     0.3197 C.2     
  12 O12            1.9200     5.7465     1.4494 O.2     
  13 N13            2.0722     6.4183    -0.6635 N.am    
  14 C14            3.3107     7.0260    -0.4304 C.ar    
  15 C15            4.2461     7.1134    -1.4532 C.ar    
  16 C16            5.4677     7.7142    -1.2205 C.ar    
  17 C17            5.7602     8.2285     0.0305 C.ar    
  18 C18            4.8301     8.1423     1.0515 C.ar    
  19 C19            3.6046     7.5480     0.8225 C.ar    
  20 Cl20           7.2969     8.9825     0.3197 Cl      
  21 C21           -1.0675     5.4497     0.4264 C.2     
  22 N22           -2.2154     4.8238     0.3235 N.2     
  23 O23           -3.1267     5.5039     0.7344 O.3     
  24 C24           -2.7006     6.6968     1.1746 C.2     
  25 C25           -1.3601     6.7183     1.0038 C.2     
  26 C26           -3.5511     7.7981     1.7532 C.3     
  27 H27           -0.3468     1.5257    -1.3219 H       
  28 H28           -0.1057    -0.7316    -2.2721 H       
  29 H29            4.0413    -0.0048    -2.9679 H       
  30 H30            3.8106     2.2524    -2.0149 H       
  31 H31            2.3533     3.9024    -1.0135 H       
  32 H32           -0.5049     3.1229    -0.7501 H       
  33 H33            1.6490     6.4976    -1.5327 H       
  34 H34            4.0186     6.7116    -2.4295 H       
  35 H35            6.1955     7.7824    -2.0156 H       
  36 H36            5.0611     8.5438     2.0271 H       
  37 H37            2.8789     7.4814     1.6196 H       
  38 H38           -0.6714     7.5148     1.2439 H       
  39 H39           -4.5944     7.4827     1.7662 H       
  40 H40           -3.2240     8.0135     2.7704 H       
  41 H41           -3.4501     8.6946     1.1416 H       
@<TRIPOS>BOND
   1    1    2 ar
   2    1    6 ar
   3    1   27 1
   4    2    3 ar
   5    2   28 1
   6    3    4 ar
   7    3    8 1
   8    4    5 ar
   9    4   29 1
  10    5    6 ar
  11    5   30 1
  12    6    7 1
  13    7    9 1
  14    7   31 1
  15    9   10 2
  16    9   32 1
  17   10   11 1
  18   10   21 1
  19   11   12 2
  20   11   13 am
  21   13   14 1
  22   13   33 1
  23   14   15 ar
  24   14   19 ar
  25   15   16 ar
  26   15   34 1
  27   16   17 ar
  28   16   35 1
  29   17   18 ar
  30   17   20 1
  31   18   19 ar
  32   18   36 1
  33   19   37 1
  34   21   22 2
  35   21   25 1
  36   22   23 1
  37   23   24 1
  38   24   25 2
  39   24   26 1
  40   25   38 1
  41   26   39 1
  42   26   40 1
  43   26   41 1

#	End of record

