#	Name: ASD01918540
#	Creating user name:	WinNT
#	Creation time:	15. 06. 2019 20:11

#	Modifying user name:	WinNT
#	Modification time:	15. 06. 2019 20:11

#	Program:	/corina/corina34_cracker 3.40 0067  02.08.2006

@<TRIPOS>MOLECULE
ASD01918540
  45   48    0    0    0
SMALL
NO_CHARGES


@<TRIPOS>ATOM
   1 F1             0.0021    -0.0041     0.0020 F       
   2 C2            -0.0162     1.3468     0.0094 C.ar    
   3 C3            -1.2240     2.0231     0.0304 C.ar    
   4 C4            -1.2415     3.4052     0.0379 C.ar    
   5 C5            -0.0538     4.1120     0.0246 C.ar    
   6 C6             1.1531     3.4376     0.0037 C.ar    
   7 C7             1.1732     2.0560     0.0019 C.ar    
   8 C8             2.4472     4.2097    -0.0109 C.3     
   9 H9             2.3095     5.1928     0.4392 H       
  10 O10            3.4910     3.4703     0.6867 O.3     
  11 C11            4.4867     3.1952    -0.1632 C.2     
  12 O12            5.4857     2.5842     0.1612 O.2     
  13 N13            4.2815     3.6543    -1.4053 N.am    
  14 C14            2.9797     4.3445    -1.4506 C.3     
  15 H15            2.3088     3.8522    -2.1546 H       
  16 C16            3.1593     5.7957    -1.8148 C.ar    
  17 C17            4.2811     6.4875    -1.3959 C.ar    
  18 N18            4.4532     7.7580    -1.7069 N.ar    
  19 C19            3.5727     8.4236    -2.4252 C.ar    
  20 C20            2.4139     7.7974    -2.8859 C.ar    
  21 C21            2.2061     6.4486    -2.5770 C.ar    
  22 C22            1.4561     8.5215    -3.6662 C.1     
  23 C23            0.6708     9.1152    -4.3058 C.1     
  24 C24           -0.3137     9.8596    -5.1079 C.3     
  25 C25           -1.4763     8.9351    -5.4748 C.3     
  26 C26           -2.5900     8.8955    -4.4150 C.3     
  27 C27           -3.5917     8.8866    -5.5817 C.3     
  28 C28           -2.5044     9.5825    -6.4174 C.3     
  29 H29           -2.1522     1.4710     0.0404 H       
  30 H30           -2.1836     3.9330     0.0539 H       
  31 H31           -0.0684     5.1919     0.0301 H       
  32 H32            2.1160     1.5294    -0.0099 H       
  33 H33            4.8910     3.5510    -2.1528 H       
  34 H34            5.0283     5.9795    -0.8042 H       
  35 H35            3.7488     9.4631    -2.6595 H       
  36 H36            1.3226     5.9313    -2.9209 H       
  37 H37           -0.6894    10.7039    -4.5299 H       
  38 H38            0.1611    10.2251    -6.0184 H       
  39 H39           -1.1461     7.9486    -5.8002 H       
  40 H40           -2.5988     7.9790    -3.8250 H       
  41 H41           -2.6416     9.7953    -3.8020 H       
  42 H42           -3.8410     7.8863    -5.9356 H       
  43 H43           -4.4713     9.5062    -5.4067 H       
  44 H44           -2.5327    10.6702    -6.3518 H       
  45 H45           -2.4443     9.2208    -7.4438 H       
@<TRIPOS>BOND
   1    1    2 1
   2    2    7 ar
   3    2    3 ar
   4    3    4 ar
   5    3   29 1
   6    4    5 ar
   7    4   30 1
   8    5    6 ar
   9    5   31 1
  10    6    7 ar
  11    6    8 1
  12    7   32 1
  13    8    9 1
  14    8   14 1
  15    8   10 1
  16   10   11 1
  17   11   12 2
  18   11   13 am
  19   13   14 1
  20   13   33 1
  21   14   15 1
  22   14   16 1
  23   16   21 ar
  24   16   17 ar
  25   17   18 ar
  26   17   34 1
  27   18   19 ar
  28   19   20 ar
  29   19   35 1
  30   20   21 ar
  31   20   22 1
  32   21   36 1
  33   22   23 3
  34   23   24 1
  35   24   25 1
  36   24   37 1
  37   24   38 1
  38   25   28 1
  39   25   26 1
  40   25   39 1
  41   26   27 1
  42   26   40 1
  43   26   41 1
  44   27   28 1
  45   27   42 1
  46   27   43 1
  47   28   44 1
  48   28   45 1

#	End of record

