#	Name: ASD05060002
#	Creating user name:	WinNT
#	Creation time:	15. 06. 2019 20:56

#	Modifying user name:	WinNT
#	Modification time:	15. 06. 2019 20:56

#	Program:	/corina/corina34_cracker 3.40 0067  02.08.2006

@<TRIPOS>MOLECULE
ASD05060002
 129  129    0    0    0
SMALL
NO_CHARGES


@<TRIPOS>ATOM
   1 N1             0.1617     2.2872    -0.5999 N.3     
   2 N2             0.2587     0.8400    -0.7008 N.3     
   3 C3            -1.0745     0.2230    -0.7159 C.3     
   4 C4            -1.5553     0.0325     0.6996 C.2     
   5 N5            -2.8480     0.3524     1.0041 N.am    
   6 C6            -3.2404     0.1362     2.4152 C.3     
   7 C7            -4.4347     1.0031     2.7208 C.2     
   8 N8            -4.5935     1.4902     3.9819 N.am    
   9 C9            -5.7813     2.3341     4.2196 C.3     
  10 C10           -5.3463     3.6085     4.8958 C.2     
  11 N11           -5.9577     4.7793     4.5481 N.am    
  12 C12           -5.4761     5.9841     5.2612 C.3     
  13 C13           -5.0822     7.0222     4.2421 C.2     
  14 N14           -4.0810     7.8949     4.5402 N.am    
  15 C15           -3.7389     8.8882     3.5028 C.3     
  16 C16           -2.2541     8.8361     3.2503 C.2     
  17 N17           -1.7730     9.2998     2.0590 N.am    
  18 C18           -0.3050     9.2102     1.8881 C.3     
  19 C19           -0.0145     8.4901     0.5965 C.2     
  20 C20            1.0493     7.4530     0.5467 C.2     
  21 C21            1.3376     6.7308    -0.7443 C.3     
  22 N22            1.6272     5.3145    -0.4436 N.am    
  23 C23            1.1376     4.3936    -1.3181 C.2     
  24 C24            1.3981     2.9311    -1.0633 C.3     
  25 O25            0.5003     4.7448    -2.2884 O.2     
  26 O26            1.6829     7.1894     1.5407 O.2     
  27 O27           -0.6463     8.7554    -0.3982 O.2     
  28 O28           -1.5002     8.3911     4.0896 O.2     
  29 O29           -5.6489     7.0789     3.1714 O.2     
  30 O30           -4.4691     3.5949     5.7332 O.2     
  31 O31           -5.2434     1.2629     1.8552 O.2     
  32 O32           -0.8083    -0.3974     1.5529 O.2     
  33 C33            0.2930    10.6176     1.8374 C.3     
  34 C34            0.0470    11.3247     3.1716 C.3     
  35 C35            0.7908    10.5852     4.2855 C.3     
  36 C36            0.5564    12.7649     3.0871 C.3     
  37 C37           -2.0489     1.1321    -1.4676 C.3     
  38 C38           -1.5636     1.3209    -2.9062 C.3     
  39 C39           -1.6123    -0.0201    -3.6411 C.3     
  40 C40           -2.4672     2.3275    -3.6213 C.3     
  41 C41            2.4814     2.7850     0.0072 C.3     
  42 O42            2.7681     1.3996     0.2086 O.3     
  43 C43           -6.4503     2.6652     2.8840 C.3     
  44 C44           -5.4101     3.2424     1.9218 C.3     
  45 C45           -5.2856     4.7502     2.1500 C.3     
  46 C46           -7.0488     1.3915     2.2838 C.3     
  47 C47           -3.6057    -1.3344     2.6271 C.3     
  48 C48           -2.3644    -2.2036     2.4163 C.3     
  49 C49           -2.7296    -3.6742     2.6283 C.3     
  50 C50           -1.4883    -4.5435     2.4175 C.3     
  51 N51           -1.8390    -5.9554     2.6210 N.3     
  52 C52           -4.4904     8.5600     2.2111 C.3     
  53 C53           -3.9988     7.2445     1.6643 C.2     
  54 O54           -3.2290     6.5679     2.3128 O.2     
  55 N55           -4.4147     6.8199     0.4547 N.am    
  56 C56           -6.9135     5.5355     7.2314 C.2     
  57 C57           -6.5927     6.5352     6.1502 C.3     
  58 O58           -6.3109     4.4897     7.2853 O.2     
  59 O59           -7.8687     5.8071     8.1345 O.3     
  60 C60           -1.0550     6.1370    -1.0130 C.2     
  61 C61            0.1191     6.8206    -1.6652 C.3     
  62 O62           -0.9590     5.7176     0.1160 O.2     
  63 O63           -2.2073     5.9942    -1.6864 O.3     
  64 H64           -0.6384     2.6323    -1.1087 H       
  65 H65            0.7917     0.5691    -1.5136 H       
  66 H66           -1.0215    -0.7446    -1.2150 H       
  67 H67           -3.4664     0.6972     0.3411 H       
  68 H68           -2.4133     0.4085     3.0708 H       
  69 H69           -3.9588     1.2926     4.6884 H       
  70 H70           -6.4847     1.8024     4.8604 H       
  71 H71           -6.6593     4.8188     3.8794 H       
  72 H72           -4.6118     5.7259     5.8731 H       
  73 H73           -3.6158     7.8656     5.3909 H       
  74 H74           -4.0163     9.8849     3.8458 H       
  75 H75           -2.3534     9.6627     1.3717 H       
  76 H76            0.1272     8.6560     2.7213 H       
  77 H77            2.2005     7.1845    -1.2318 H       
  78 H78            2.1404     5.0537     0.3371 H       
  79 H79            1.7319     2.4555    -1.9855 H       
  80 H80            1.3654    10.5503     1.6542 H       
  81 H81           -0.1780    11.1837     1.0338 H       
  82 H82           -1.0212    11.3293     3.3889 H       
  83 H83            1.8589    10.5807     4.0683 H       
  84 H84            0.6155    11.0890     5.2361 H       
  85 H85            0.4279     9.5592     4.3458 H       
  86 H86            1.6032    12.7628     2.7834 H       
  87 H87           -0.0332    13.3165     2.3548 H       
  88 H88            0.4620    13.2416     4.0628 H       
  89 H89           -3.0389     0.6763    -1.4750 H       
  90 H90           -2.0986     2.1010    -0.9708 H       
  91 H91           -0.5394     1.6938    -2.8982 H       
  92 H92           -1.2666     0.1144    -4.6660 H       
  93 H93           -0.9686    -0.7372    -3.1317 H       
  94 H94           -2.6365    -0.3930    -3.6491 H       
  95 H95           -2.4325     3.2829    -3.0978 H       
  96 H96           -2.1215     2.4620    -4.6462 H       
  97 H97           -3.4914     1.9546    -3.6293 H       
  98 H98            3.3855     3.2995    -0.3183 H       
  99 H99            2.1304     3.2230     0.9415 H       
 100 H100           3.4478     1.2316     0.8756 H       
 101 H101          -7.2415     3.3973     3.0456 H       
 102 H102          -4.4459     2.7670     2.1013 H       
 103 H103          -5.7221     3.0550     0.8944 H       
 104 H104          -4.6765     5.1883     1.3593 H       
 105 H105          -6.2772     5.2026     2.1377 H       
 106 H106          -4.8144     4.9339     3.1156 H       
 107 H107          -7.9898     1.1617     2.7836 H       
 108 H108          -7.2300     1.5417     1.2195 H       
 109 H109          -6.3531     0.5636     2.4206 H       
 110 H110          -3.9786    -1.4735     3.6419 H       
 111 H111          -4.3772    -1.6236     1.9136 H       
 112 H112          -1.9914    -2.0645     1.4016 H       
 113 H113          -1.5928    -1.9144     3.1298 H       
 114 H114          -3.1025    -3.8134     3.6430 H       
 115 H115          -3.5012    -3.9635     1.9148 H       
 116 H116          -1.1154    -4.4044     1.4027 H       
 117 H117          -0.7167    -4.2543     3.1310 H       
 118 H118          -1.0352    -6.5505     2.4872 H       
 119 H119          -2.2474    -6.0988     3.5324 H       
 120 H120          -5.5581     8.4906     2.4195 H       
 121 H121          -4.3137     9.3470     1.4780 H       
 122 H122          -5.0304     7.3610    -0.0640 H       
 123 H123          -4.0982     5.9732     0.1028 H       
 124 H124          -6.2666     7.4704     6.6053 H       
 125 H125          -7.4821     6.7155     5.5466 H       
 126 H126          -8.0389     5.1353     8.8089 H       
 127 H127          -0.1241     7.8678    -1.8449 H       
 128 H128           0.3434     6.3318    -2.6133 H       
 129 H129          -2.9322     5.5491    -1.2265 H       
@<TRIPOS>BOND
   1    1    2 1
   2    1   24 1
   3    1   64 1
   4    2    3 1
   5    2   65 1
   6    3    4 1
   7    3   37 1
   8    3   66 1
   9    4    5 am
  10    4   32 2
  11    5    6 1
  12    5   67 1
  13    6    7 1
  14    6   47 1
  15    6   68 1
  16    7    8 am
  17    7   31 2
  18    8    9 1
  19    8   69 1
  20    9   10 1
  21    9   43 1
  22    9   70 1
  23   10   11 am
  24   10   30 2
  25   11   12 1
  26   11   71 1
  27   12   13 1
  28   12   57 1
  29   12   72 1
  30   13   14 am
  31   13   29 2
  32   14   15 1
  33   14   73 1
  34   15   16 1
  35   15   52 1
  36   15   74 1
  37   16   17 am
  38   16   28 2
  39   17   18 1
  40   17   75 1
  41   18   19 1
  42   18   33 1
  43   18   76 1
  44   19   20 1
  45   19   27 2
  46   20   21 1
  47   20   26 2
  48   21   22 1
  49   21   61 1
  50   21   77 1
  51   22   23 am
  52   22   78 1
  53   23   24 1
  54   23   25 2
  55   24   41 1
  56   24   79 1
  57   33   34 1
  58   33   80 1
  59   33   81 1
  60   34   35 1
  61   34   36 1
  62   34   82 1
  63   35   83 1
  64   35   84 1
  65   35   85 1
  66   36   86 1
  67   36   87 1
  68   36   88 1
  69   37   38 1
  70   37   89 1
  71   37   90 1
  72   38   39 1
  73   38   40 1
  74   38   91 1
  75   39   92 1
  76   39   93 1
  77   39   94 1
  78   40   95 1
  79   40   96 1
  80   40   97 1
  81   41   42 1
  82   41   98 1
  83   41   99 1
  84   42  100 1
  85   43   44 1
  86   43   46 1
  87   43  101 1
  88   44   45 1
  89   44  102 1
  90   44  103 1
  91   45  104 1
  92   45  105 1
  93   45  106 1
  94   46  107 1
  95   46  108 1
  96   46  109 1
  97   47   48 1
  98   47  110 1
  99   47  111 1
 100   48   49 1
 101   48  112 1
 102   48  113 1
 103   49   50 1
 104   49  114 1
 105   49  115 1
 106   50   51 1
 107   50  116 1
 108   50  117 1
 109   51  118 1
 110   51  119 1
 111   52   53 1
 112   52  120 1
 113   52  121 1
 114   53   54 2
 115   53   55 am
 116   55  122 1
 117   55  123 1
 118   56   57 1
 119   56   58 2
 120   56   59 1
 121   57  124 1
 122   57  125 1
 123   59  126 1
 124   60   61 1
 125   60   62 2
 126   60   63 1
 127   61  127 1
 128   61  128 1
 129   63  129 1

#	End of record

