#	Name: ASD03081167
#	Creating user name:	WinNT
#	Creation time:	15. 06. 2019 20:27

#	Modifying user name:	WinNT
#	Modification time:	15. 06. 2019 20:27

#	Program:	/corina/corina34_cracker 3.40 0067  02.08.2006

@<TRIPOS>MOLECULE
ASD03081167
  21   22    0    0    0
SMALL
NO_CHARGES


@<TRIPOS>ATOM
   1 O1            -0.0161     1.3380     0.0094 O.3     
   2 C2             0.0021    -0.0041     0.0020 C.2     
   3 N3             1.2784    -0.4365    -0.0125 N.am    
   4 C4             2.1023     0.6895    -0.0143 C.ar    
   5 C5             1.2575     1.8015    -0.0003 C.ar    
   6 C6             1.7958     3.0805     0.0011 C.ar    
   7 C7             3.1629     3.2549    -0.0119 C.ar    
   8 C8             4.0118     2.1465    -0.0264 C.ar    
   9 C9             3.4747     0.8595    -0.0261 C.ar    
  10 C10            5.4792     2.3371    -0.0409 C.2     
  11 N11            6.2693     1.3035    -0.0544 N.2     
  12 N12            6.0114     3.6155    -0.0401 N.pl3   
  13 O13           -0.9812    -0.7193     0.0076 O.2     
  14 O14            7.6735     1.4859    -0.0683 O.3     
  15 H15            1.5708    -1.3613    -0.0200 H       
  16 H16            1.1425     3.9404     0.0119 H       
  17 H17            3.5787     4.2517    -0.0112 H       
  18 H18            4.1276    -0.0007    -0.0369 H       
  19 H19            5.4223     4.3860    -0.0300 H       
  20 H20            6.9733     3.7404    -0.0496 H       
  21 H21            8.1772     0.6605    -0.0778 H       
@<TRIPOS>BOND
   1    1    2 1
   2    1    5 1
   3    2    3 am
   4    2   13 2
   5    3    4 1
   6    3   15 1
   7    4    5 ar
   8    4    9 ar
   9    5    6 ar
  10    6    7 ar
  11    6   16 1
  12    7    8 ar
  13    7   17 1
  14    8    9 ar
  15    8   10 1
  16    9   18 1
  17   10   11 2
  18   10   12 1
  19   11   14 1
  20   12   19 1
  21   12   20 1
  22   14   21 1

#	End of record

