#	Name: ASD05303028
#	Creating user name:	WinNT
#	Creation time:	15. 06. 2019 20:58

#	Modifying user name:	WinNT
#	Modification time:	15. 06. 2019 20:58

#	Program:	/corina/corina34_cracker 3.40 0067  02.08.2006

@<TRIPOS>MOLECULE
ASD05303028
  36   38    0    0    0
SMALL
NO_CHARGES


@<TRIPOS>ATOM
   1 C1             0.1607     0.8105     1.9046 C.ar    
   2 C2             0.2972    -0.5510     1.7099 C.ar    
   3 C3             1.4465    -1.0557     1.1273 C.ar    
   4 C4             2.4575    -0.1939     0.7406 C.ar    
   5 C5             2.3219     1.1793     0.9322 C.ar    
   6 C6             1.1680     1.6758     1.5180 C.ar    
   7 O7             3.3075     2.0295     0.5470 O.3     
   8 N8             3.6358    -0.6921     0.1545 N.am    
   9 C9             4.5426     1.5438     0.2621 C.ar    
  10 C10            4.7362     0.1795     0.0574 C.ar    
  11 C11            5.9964    -0.3101    -0.2373 C.ar    
  12 C12            7.0691     0.5597    -0.3268 C.ar    
  13 C13            6.8810     1.9135    -0.1221 C.ar    
  14 C14            5.6231     2.4073     0.1722 C.ar    
  15 C15            3.7080    -1.9597    -0.2976 C.2     
  16 O16            4.7900    -2.4563    -0.5452 O.2     
  17 N17            2.5809    -2.6770    -0.4752 N.am    
  18 H18            1.7151    -2.2630    -0.3338 H       
  19 C19            2.6632    -4.0820    -0.8820 C.3     
  20 C20            1.2521    -4.6589    -1.0119 C.3     
  21 C21            1.3381    -6.1262    -1.4368 C.3     
  22 H22           -0.7389     1.2010     2.3568 H       
  23 H23           -0.4935    -1.2214     2.0129 H       
  24 H24            1.5542    -2.1196     0.9752 H       
  25 H25            1.0553     2.7387     1.6723 H       
  26 H26            6.1425    -1.3682    -0.3967 H       
  27 H27            8.0538     0.1802    -0.5564 H       
  28 H28            7.7208     2.5891    -0.1914 H       
  29 H29            5.4824     3.4663     0.3307 H       
  30 H30            3.1746    -4.1530    -1.8420 H       
  31 H31            3.2184    -4.6454    -0.1321 H       
  32 H32            0.7408    -4.5879    -0.0519 H       
  33 H33            0.6969    -4.0955    -1.7619 H       
  34 H34            1.8933    -6.6896    -0.6868 H       
  35 H35            0.3328    -6.5372    -1.5293 H       
  36 H36            1.8494    -6.1972    -2.3968 H       
@<TRIPOS>BOND
   1    1    2 ar
   2    1    6 ar
   3    1   22 1
   4    2    3 ar
   5    2   23 1
   6    3    4 ar
   7    3   24 1
   8    4    5 ar
   9    4    8 1
  10    5    6 ar
  11    5    7 1
  12    6   25 1
  13    7    9 1
  14    8   10 1
  15    8   15 am
  16    9   10 ar
  17    9   14 ar
  18   10   11 ar
  19   11   12 ar
  20   11   26 1
  21   12   13 ar
  22   12   27 1
  23   13   14 ar
  24   13   28 1
  25   14   29 1
  26   15   16 2
  27   15   17 am
  28   17   18 1
  29   17   19 1
  30   19   20 1
  31   19   30 1
  32   19   31 1
  33   20   21 1
  34   20   32 1
  35   20   33 1
  36   21   34 1
  37   21   35 1
  38   21   36 1

#	End of record

