#	Name: ASD06170158
#	Creating user name:	WinNT
#	Creation time:	15. 06. 2019 21:05

#	Modifying user name:	WinNT
#	Modification time:	15. 06. 2019 21:05

#	Program:	/corina/corina34_cracker 3.40 0067  02.08.2006

@<TRIPOS>MOLECULE
ASD06170158
  79   83    0    0    0
SMALL
NO_CHARGES


@<TRIPOS>ATOM
   1 N1             0.2339    -2.8966     0.7009 N.pl3   
   2 N2             0.3063    -1.6687     0.0364 N.am    
   3 C3             1.6058    -1.3438    -0.1254 C.2     
   4 C4             2.3877    -2.4363     0.4750 C.2     
   5 C5             1.4744    -3.3514     0.9609 C.2     
   6 C6             3.8507    -2.5342     0.5440 C.2     
   7 O7             4.3718    -3.4989     1.0719 O.2     
   8 N8             4.6169    -1.5556     0.0227 N.am    
   9 C9            -1.0076    -3.5835     1.0659 C.3     
  10 C10           -1.4185    -4.5291    -0.0645 C.3     
  11 C11           -2.7150    -5.2465     0.3166 C.3     
  12 C12           -0.7854    -0.9053    -0.3899 C.ar    
  13 C13           -1.8087    -0.5981     0.4974 C.ar    
  14 C14           -2.8851     0.1563     0.0734 C.ar    
  15 C15           -2.9448     0.6053    -1.2332 C.ar    
  16 C16           -1.9277     0.3008    -2.1193 C.ar    
  17 C17           -0.8456    -0.4480    -1.6999 C.ar    
  18 O18            2.0449    -0.3443    -0.6629 O.2     
  19 C19            1.8098    -4.6413     1.6643 C.3     
  20 C20            6.0082    -1.5991     0.1757 C.ar    
  21 C21            6.6714    -2.8192     0.1555 C.ar    
  22 C22            8.0448    -2.8610     0.3062 C.ar    
  23 C23            8.7606    -1.6823     0.4778 C.ar    
  24 C24            8.0976    -0.4650     0.4978 C.ar    
  25 C25            6.7255    -0.4221     0.3420 C.ar    
  26 F26            8.6909    -4.0474     0.2871 F       
  27 O27           10.1120    -1.7231     0.6265 O.3     
  28 C28           11.0412    -1.8906    -2.7866 C.ar    
  29 N29           10.3077    -1.8554    -1.6925 N.ar    
  30 C30           10.8746    -1.7590    -0.4933 C.ar    
  31 C31           12.2606    -1.6953    -0.4048 C.ar    
  32 C32           12.9989    -1.7353    -1.5832 C.ar    
  33 N33           12.3566    -1.8326    -2.7447 N.ar    
  34 C34           15.0885    -1.6015    -2.6970 C.2     
  35 O35           14.5056    -1.5006    -3.7591 O.2     
  36 N36           14.3878    -1.6742    -1.5480 N.am    
  37 N37           16.4354    -1.6405    -2.6686 N.am    
  38 C38           17.3196    -1.5709    -3.8412 C.3     
  39 C39           18.7709    -1.6780    -3.3276 C.3     
  40 C40           18.6017    -2.3700    -1.9493 C.3     
  41 C41           17.2663    -1.7537    -1.4560 C.3     
  42 N42           19.5815    -2.5071    -4.2295 N.3     
  43 C43           19.6466    -1.9154    -5.5725 C.3     
  44 C44           20.9280    -2.7192    -3.6818 C.3     
  45 H45            4.2047    -0.8212    -0.4585 H       
  46 H46           -0.8506    -4.1564     1.9798 H       
  47 H47           -1.7954    -2.8481     1.2289 H       
  48 H48           -1.5754    -3.9562    -0.9785 H       
  49 H49           -0.6307    -5.2645    -0.2275 H       
  50 H50           -3.0078    -5.9202    -0.4887 H       
  51 H51           -2.5581    -5.8194     1.2305 H       
  52 H52           -3.5028    -4.5111     0.4796 H       
  53 H53           -1.7630    -0.9491     1.5178 H       
  54 H54           -3.6811     0.3955     0.7629 H       
  55 H55           -3.7877     1.1947    -1.5623 H       
  56 H56           -1.9777     0.6524    -3.1392 H       
  57 H57           -0.0493    -0.6813    -2.3912 H       
  58 H58            1.9002    -5.4424     0.9307 H       
  59 H59            2.7534    -4.5293     2.1982 H       
  60 H60            1.0182    -4.8852     2.3728 H       
  61 H61            6.1143    -3.7348     0.0225 H       
  62 H62            8.6544     0.4507     0.6315 H       
  63 H63            6.2103     0.5270     0.3532 H       
  64 H64           10.5501    -1.9737    -3.7449 H       
  65 H65           12.7514    -1.6163     0.5540 H       
  66 H66           14.8523    -1.6839    -0.6965 H       
  67 H67           17.1038    -2.3978    -4.5177 H       
  68 H68           17.1778    -0.6209    -4.3565 H       
  69 H69           19.2126    -0.6883    -3.2106 H       
  70 H70           18.5187    -3.4510    -2.0624 H       
  71 H71           19.4209    -2.1107    -1.2787 H       
  72 H72           17.4381    -0.7693    -1.0207 H       
  73 H73           16.7901    -2.4126    -0.7300 H       
  74 H74           20.0955    -0.9240    -5.5113 H       
  75 H75           20.2527    -2.5493    -6.2198 H       
  76 H76           18.6401    -1.8339    -5.9828 H       
  77 H77           20.8530    -3.2220    -2.7176 H       
  78 H78           21.5069    -3.3360    -4.3692 H       
  79 H79           21.4232    -1.7569    -3.5522 H       
@<TRIPOS>BOND
   1    1    2 1
   2    1    5 1
   3    1    9 1
   4    2    3 am
   5    2   12 1
   6    3    4 1
   7    3   18 2
   8    4    5 2
   9    4    6 1
  10    5   19 1
  11    6    7 2
  12    6    8 am
  13    8   20 1
  14    8   45 1
  15    9   10 1
  16    9   46 1
  17    9   47 1
  18   10   11 1
  19   10   48 1
  20   10   49 1
  21   11   50 1
  22   11   51 1
  23   11   52 1
  24   12   13 ar
  25   12   17 ar
  26   13   14 ar
  27   13   53 1
  28   14   15 ar
  29   14   54 1
  30   15   16 ar
  31   15   55 1
  32   16   17 ar
  33   16   56 1
  34   17   57 1
  35   19   58 1
  36   19   59 1
  37   19   60 1
  38   20   21 ar
  39   20   25 ar
  40   21   22 ar
  41   21   61 1
  42   22   23 ar
  43   22   26 1
  44   23   24 ar
  45   23   27 1
  46   24   25 ar
  47   24   62 1
  48   25   63 1
  49   27   30 1
  50   28   29 ar
  51   28   33 ar
  52   28   64 1
  53   29   30 ar
  54   30   31 ar
  55   31   32 ar
  56   31   65 1
  57   32   33 ar
  58   32   36 1
  59   34   35 2
  60   34   36 am
  61   34   37 am
  62   36   66 1
  63   37   38 1
  64   37   41 1
  65   38   39 1
  66   38   67 1
  67   38   68 1
  68   39   40 1
  69   39   42 1
  70   39   69 1
  71   40   41 1
  72   40   70 1
  73   40   71 1
  74   41   72 1
  75   41   73 1
  76   42   43 1
  77   42   44 1
  78   43   74 1
  79   43   75 1
  80   43   76 1
  81   44   77 1
  82   44   78 1
  83   44   79 1

#	End of record

