#	Name: ASD01882280
#	Creating user name:	WinNT
#	Creation time:	15. 06. 2019 19:44

#	Modifying user name:	WinNT
#	Modification time:	15. 06. 2019 19:44

#	Program:	/corina/corina34_cracker 3.40 0067  02.08.2006

@<TRIPOS>MOLECULE
ASD01882280
  47   49    0    0    0
SMALL
NO_CHARGES


@<TRIPOS>ATOM
   1 C1            -0.2279     1.3894     0.2062 C.3     
   2 C2             0.0401    -0.1178     0.1885 C.3     
   3 C3             0.5372    -0.5238    -1.2024 C.3     
   4 C4             1.7871     0.2931    -1.5443 C.3     
   5 C5             1.4516     1.7844    -1.4597 C.3     
   6 O6             0.9663     2.0885    -0.1504 O.3     
   7 O7             0.8598    -1.9159    -1.2072 O.3     
   8 C8             0.8102    -2.5556    -2.4029 C.ar    
   9 C9             0.9945    -3.9337    -2.4614 C.ar    
  10 C10            0.9441    -4.5854    -3.6742 C.ar    
  11 C11            0.7079    -3.8617    -4.8443 C.ar    
  12 C12            0.5236    -2.4800    -4.7819 C.ar    
  13 C13            0.5697    -1.8342    -3.5661 C.ar    
  14 O14            0.4201    -4.0216    -7.5203 O.3     
  15 B15            0.6503    -4.6011    -6.2281 Du      
  16 O16            0.8169    -6.0040    -6.4776 O.3     
  17 C17            1.5893    -6.0694    -7.6949 C.3     
  18 C18            1.3203    -4.7253    -8.4018 C.3     
  19 C19            0.6593    -4.9609    -9.7614 C.3     
  20 C20            2.6232    -3.9411    -8.5699 C.3     
  21 C21            3.0783    -6.2144    -7.3743 C.3     
  22 C22            1.1144    -7.2342    -8.5658 C.3     
  23 Cl23           1.2887    -4.8321    -1.0054 Cl      
  24 H24           -1.0155     1.6269    -0.5090 H       
  25 H25           -0.5411     1.6912     1.2056 H       
  26 H26            0.7990    -0.3615     0.9320 H       
  27 H27           -0.8807    -0.6542     0.4171 H       
  28 H28           -0.2407    -0.3259    -1.9398 H       
  29 H29            2.5813     0.0576    -0.8358 H       
  30 H30            2.1156     0.0504    -2.5549 H       
  31 H31            2.3483     2.3707    -1.6603 H       
  32 H32            0.6860     2.0271    -2.1966 H       
  33 H33            1.0875    -5.6549    -3.7196 H       
  34 H34            0.3411    -1.9178    -5.6858 H       
  35 H35            0.4226    -0.7654    -3.5171 H       
  36 H36            0.4233    -4.0016   -10.2219 H       
  37 H37            1.3416    -5.5152   -10.4059 H       
  38 H38           -0.2579    -5.5339    -9.6251 H       
  39 H39            3.0885    -3.7962    -7.5949 H       
  40 H40            3.3013    -4.4976    -9.2169 H       
  41 H41            2.4082    -2.9709    -9.0176 H       
  42 H42            3.2430    -7.1410    -6.8244 H       
  43 H43            3.6494    -6.2363    -8.3025 H       
  44 H44            3.4034    -5.3692    -6.7676 H       
  45 H45            0.0570    -7.1068    -8.7978 H       
  46 H46            1.6896    -7.2539    -9.4915 H       
  47 H47            1.2582    -8.1717    -8.0286 H       
@<TRIPOS>BOND
   1    1    2 1
   2    1    6 1
   3    1   24 1
   4    1   25 1
   5    2    3 1
   6    2   26 1
   7    2   27 1
   8    3    4 1
   9    3    7 1
  10    3   28 1
  11    4    5 1
  12    4   29 1
  13    4   30 1
  14    5    6 1
  15    5   31 1
  16    5   32 1
  17    7    8 1
  18    8    9 ar
  19    8   13 ar
  20    9   10 ar
  21    9   23 1
  22   10   11 ar
  23   10   33 1
  24   11   12 ar
  25   11   15 1
  26   12   13 ar
  27   12   34 1
  28   13   35 1
  29   14   15 1
  30   14   18 1
  31   15   16 1
  32   16   17 1
  33   17   18 1
  34   17   21 1
  35   17   22 1
  36   18   19 1
  37   18   20 1
  38   19   36 1
  39   19   37 1
  40   19   38 1
  41   20   39 1
  42   20   40 1
  43   20   41 1
  44   21   42 1
  45   21   43 1
  46   21   44 1
  47   22   45 1
  48   22   46 1
  49   22   47 1

#	End of record

