#	Name: ASD03092708
#	Creating user name:	WinNT
#	Creation time:	15. 06. 2019 20:33

#	Modifying user name:	WinNT
#	Modification time:	15. 06. 2019 20:33

#	Program:	/corina/corina34_cracker 3.40 0067  02.08.2006

@<TRIPOS>MOLECULE
ASD03092708
  56   58    0    0    0
SMALL
NO_CHARGES


@<TRIPOS>ATOM
   1 C1            -0.0034     1.4859     0.0393 C.3     
   2 C2            -0.0242    -0.0436     0.0029 C.3     
   3 C3             1.3111     0.7030     0.0252 C.3     
   4 C4            -0.3999     2.1566     1.3293 C.2     
   5 O5            -0.7195     1.4861     2.2881 O.2     
   6 N6            -0.3995     3.5014     1.4174 N.am    
   7 C7            -0.7850     4.1535     2.6714 C.3     
   8 C8             0.4306     4.2389     3.5965 C.3     
   9 C9            -0.6719     6.3272     1.4291 C.ar    
  10 C10           -1.2932     5.5420     2.3801 C.ar    
  11 C11           -2.3908     6.0451     3.0643 C.ar    
  12 C12           -2.8250     7.3250     2.7656 C.ar    
  13 C13           -2.1518     8.0582     1.7972 C.ar    
  14 N14           -1.1088     7.5441     1.1666 N.ar    
  15 O15           -2.5676     9.3139     1.4952 O.3     
  16 C16           -1.9551    11.7901    -1.2614 C.3     
  17 C17           -2.7661    10.9865    -0.2414 C.3     
  18 C18           -1.8335    10.0163     0.4904 C.3     
  19 C19           -0.6999    10.8113     1.1455 C.3     
  20 C20            0.0312    11.6217     0.0720 C.3     
  21 O21           -0.8990    12.4806    -0.5906 O.3     
  22 O22            1.4146     5.0948     3.0123 O.3     
  23 C23           -0.4310    -0.7033    -1.2895 C.2     
  24 C24            0.2722    -0.3759    -2.5320 C.2     
  25 C25            0.8453    -1.3557    -3.2610 C.2     
  26 C26            0.8808    -2.7265    -2.7460 C.2     
  27 C27            1.5295    -3.6754    -3.4208 C.2     
  28 C28           -1.4308    -1.5848    -1.3020 C.2     
  29 H29           -0.2840     2.0149    -0.8714 H       
  30 H30           -0.3247    -0.5646     0.9119 H       
  31 H31            1.8953     0.7171    -0.8950 H       
  32 H32            1.8891     0.6732     0.9488 H       
  33 H33           -0.1440     4.0377     0.6506 H       
  34 H34           -1.5704     3.5734     3.1560 H       
  35 H35            0.1249     4.6425     4.5618 H       
  36 H36            0.8518     3.2433     3.7359 H       
  37 H37            0.1854     5.9422     0.8970 H       
  38 H38           -2.8949     5.4514     3.8125 H       
  39 H39           -3.6763     7.7477     3.2786 H       
  40 H40           -1.5328    11.1135    -2.0043 H       
  41 H41           -2.6055    12.5121    -1.7551 H       
  42 H42           -3.2220    11.6662     0.4784 H       
  43 H43           -3.5448    10.4243    -0.7568 H       
  44 H44           -1.4169     9.3039    -0.2217 H       
  45 H45           -1.1141    11.4875     1.8933 H       
  46 H46           -0.0010    10.1239     1.6220 H       
  47 H47            0.8119    12.2224     0.5387 H       
  48 H48            0.4796    10.9429    -0.6535 H       
  49 H49            2.2148     5.1956     3.5458 H       
  50 H50            0.3320     0.6499    -2.8645 H       
  51 H51            1.2779    -1.1295    -4.2243 H       
  52 H52            0.3813    -2.9683    -1.8194 H       
  53 H53            1.5557    -4.6861    -3.0411 H       
  54 H54            2.0290    -3.4335    -4.3473 H       
  55 H55           -1.7224    -2.0576    -2.2282 H       
  56 H56           -1.9493    -1.8261    -0.3859 H       
@<TRIPOS>BOND
   1    1    2 1
   2    1    3 1
   3    1    4 1
   4    1   29 1
   5    2    3 1
   6    2   23 1
   7    2   30 1
   8    3   31 1
   9    3   32 1
  10    4    5 2
  11    4    6 am
  12    6    7 1
  13    6   33 1
  14    7    8 1
  15    7   10 1
  16    7   34 1
  17    8   22 1
  18    8   35 1
  19    8   36 1
  20    9   10 ar
  21    9   14 ar
  22    9   37 1
  23   10   11 ar
  24   11   12 ar
  25   11   38 1
  26   12   13 ar
  27   12   39 1
  28   13   14 ar
  29   13   15 1
  30   15   18 1
  31   16   17 1
  32   16   21 1
  33   16   40 1
  34   16   41 1
  35   17   18 1
  36   17   42 1
  37   17   43 1
  38   18   19 1
  39   18   44 1
  40   19   20 1
  41   19   45 1
  42   19   46 1
  43   20   21 1
  44   20   47 1
  45   20   48 1
  46   22   49 1
  47   23   24 1
  48   23   28 2
  49   24   25 2
  50   24   50 1
  51   25   26 1
  52   25   51 1
  53   26   27 2
  54   26   52 1
  55   27   53 1
  56   27   54 1
  57   28   55 1
  58   28   56 1

#	End of record

