#	Name: ASD05380012
#	Creating user name:	WinNT
#	Creation time:	15. 06. 2019 20:59

#	Modifying user name:	WinNT
#	Modification time:	15. 06. 2019 20:59

#	Program:	/corina/corina34_cracker 3.40 0067  02.08.2006

@<TRIPOS>MOLECULE
ASD05380012
  49   53    0    0    0
SMALL
NO_CHARGES


@<TRIPOS>ATOM
   1 C1            -0.3076     1.6423     0.3413 C.ar    
   2 C2            -0.3153     0.2558     0.0686 C.ar    
   3 C3             0.8994     2.3056     0.5513 C.ar    
   4 C4             2.0814     1.5999     0.4909 C.ar    
   5 C5             2.0776     0.2375     0.2227 C.ar    
   6 C6             0.8955    -0.4370     0.0131 C.ar    
   7 C7             0.9122     3.7842     0.8420 C.3     
   8 N8            -1.5023    -0.3688    -0.1324 N.2     
   9 C9            -2.6283     0.2760    -0.0803 C.2     
  10 N10           -2.7152     1.6090     0.1752 N.am    
  11 C11           -1.5994     2.3415     0.3995 C.2     
  12 C12           -3.9724     2.2288     0.2128 C.ar    
  13 C13           -4.6402     2.3773     1.4227 C.ar    
  14 C14           -4.5517     2.7013    -0.9591 C.ar    
  15 C15           -5.7923     3.3122    -0.9178 C.ar    
  16 C16           -6.4559     3.4529     0.2870 C.ar    
  17 C17           -5.8805     2.9892     1.4556 C.ar    
  18 C18           -3.9036    -0.4918    -0.3153 C.3     
  19 N19           -3.6728    -1.5229    -1.3301 N.pl3   
  20 C20           -4.7298    -1.9985    -2.0860 C.ar    
  21 N21           -5.9602    -1.5303    -1.9040 N.ar    
  22 O22           -1.6624     3.5353     0.6297 O.2     
  23 C23           -4.5254    -2.9831    -3.0675 C.ar    
  24 C24           -5.6362    -3.4276    -3.8040 C.ar    
  25 N25           -6.8317    -2.9053    -3.5495 N.ar    
  26 C26           -6.9765    -1.9790    -2.6219 C.ar    
  27 N27           -3.4464    -3.6667    -3.5203 N.2     
  28 C28           -3.8156    -4.4823    -4.4646 C.2     
  29 N29           -5.1582    -4.3720    -4.6766 N.pl3   
  30 F30           -3.9038     2.5647    -2.1367 F       
  31 F31           -4.0790     1.9242     2.5651 F       
  32 C32           -4.3493    -1.1523     0.9908 C.3     
  33 F33           -8.2074    -1.4696    -2.3972 F       
  34 H34            3.0189     2.1109     0.6532 H       
  35 H35            3.0133    -0.2998     0.1783 H       
  36 H36            0.9051    -1.4969    -0.1944 H       
  37 H37            0.7336     3.9472     1.9049 H       
  38 H38            1.8821     4.1998     0.5687 H       
  39 H39            0.1303     4.2752     0.2627 H       
  40 H40           -6.2429     3.6799    -1.8278 H       
  41 H41           -7.4243     3.9302     0.3159 H       
  42 H42           -6.4020     3.1010     2.3947 H       
  43 H43           -4.6801     0.1907    -0.6608 H       
  44 H44           -2.7792    -1.8723    -1.4720 H       
  45 H45           -3.1560    -5.1480    -5.0014 H       
  46 H46           -5.6796    -4.8703    -5.3253 H       
  47 H47           -3.5988    -1.8773     1.3059 H       
  48 H48           -4.4651    -0.3907     1.7620 H       
  49 H49           -5.3015    -1.6593     0.8350 H       
@<TRIPOS>BOND
   1    1    2 ar
   2    1    3 ar
   3    1   11 1
   4    2    8 1
   5    2    6 ar
   6    3    4 ar
   7    3    7 1
   8    4    5 ar
   9    4   34 1
  10    5    6 ar
  11    5   35 1
  12    6   36 1
  13    7   37 1
  14    7   38 1
  15    7   39 1
  16    8    9 2
  17    9   10 1
  18    9   18 1
  19   10   11 am
  20   10   12 1
  21   11   22 2
  22   12   13 ar
  23   12   14 ar
  24   13   31 1
  25   13   17 ar
  26   14   15 ar
  27   14   30 1
  28   15   16 ar
  29   15   40 1
  30   16   17 ar
  31   16   41 1
  32   17   42 1
  33   18   19 1
  34   18   32 1
  35   18   43 1
  36   19   20 1
  37   19   44 1
  38   20   21 ar
  39   20   23 ar
  40   21   26 ar
  41   23   24 ar
  42   23   27 1
  43   24   25 ar
  44   24   29 1
  45   25   26 ar
  46   26   33 1
  47   27   28 2
  48   28   29 1
  49   28   45 1
  50   29   46 1
  51   32   47 1
  52   32   48 1
  53   32   49 1

#	End of record

