#	Name: ASD01881461
#	Creating user name:	WinNT
#	Creation time:	15. 06. 2019 19:42

#	Modifying user name:	WinNT
#	Modification time:	15. 06. 2019 19:42

#	Program:	/corina/corina34_cracker 3.40 0067  02.08.2006

@<TRIPOS>MOLECULE
ASD01881461
  52   56    0    0    0
SMALL
NO_CHARGES


@<TRIPOS>ATOM
   1 C1            -0.0187     1.5258     0.0104 C.3     
   2 C2             1.1177    10.0922     4.2867 C.ar    
   3 C3             1.3105     9.0044     3.4595 C.ar    
   4 C4            -0.0139    10.1713     5.0778 C.ar    
   5 C5            -0.9599     9.1606     5.0452 C.ar    
   6 C6            -0.7775     8.0675     4.2213 C.ar    
   7 C7             0.3618     7.9833     3.4218 C.ar    
   8 C8             0.5634     6.8131     2.5351 C.2     
   9 C9             0.5741     6.9716     1.1624 C.2     
  10 C10            0.7529     5.5225     3.0863 C.2     
  11 C11            0.9358     4.4608     2.2792 C.2     
  12 N12            0.9421     4.6071     0.9218 N.pl3   
  13 C13            0.7674     5.8430     0.3474 C.2     
  14 C14            1.0994     3.7357    -0.1122 C.2     
  15 N15            1.0158     4.4224    -1.2225 N.2     
  16 N16            0.8206     5.6676    -0.9640 N.2     
  17 C17            1.3287     2.2506     0.0015 C.3     
  18 Cl18          -2.3770     9.2674     6.0423 Cl      
  19 C19           -0.2182    11.3619     5.9787 C.3     
  20 N20           -1.2395    12.2448     5.3994 N.3     
  21 C21           -1.6387    13.2914     6.3583 C.3     
  22 C22            0.0021    -0.0041     0.0020 C.3     
  23 C23           -0.3944     0.7486     1.2737 C.3     
  24 C24           -1.3948    14.6538     5.6758 C.3     
  25 C25           -1.4075    14.2957     4.1663 C.3     
  26 C26           -0.7400    12.8979     4.1707 C.3     
  27 F27           -2.7170    14.2243     3.6792 F       
  28 F28           -0.6494    15.2107     3.4278 F       
  29 C29            0.3807     8.3341     0.5483 C.3     
  30 F30            1.6290     8.9090     0.2864 F       
  31 F31           -0.3354     8.2096    -0.6470 F       
  32 F32           -0.3309     9.1487     1.4356 F       
  33 H33           -0.8227     2.0212    -0.5339 H       
  34 H34            1.8543    10.8814     4.3196 H       
  35 H35            2.1945     8.9444     2.8420 H       
  36 H36           -1.5155     7.2793     4.1965 H       
  37 H37            0.7510     5.3897     4.1581 H       
  38 H38            1.0797     3.4813     2.7107 H       
  39 H39            1.8633     2.0353     0.9266 H       
  40 H40            1.9198     1.9082    -0.8479 H       
  41 H41           -0.5465    11.0222     6.9610 H       
  42 H42            0.7200    11.9078     6.0780 H       
  43 H43           -2.6948    13.1843     6.6056 H       
  44 H44           -1.0343    13.2161     7.2623 H       
  45 H45           -0.7885    -0.5151    -0.5475 H       
  46 H46            0.9756    -0.4941    -0.0099 H       
  47 H47            0.3183     0.7538     2.0984 H       
  48 H48           -1.4458     0.7328     1.5608 H       
  49 H49           -2.1970    15.3526     5.9128 H       
  50 H50           -0.4273    15.0629     5.9667 H       
  51 H51            0.3450    12.9956     4.2070 H       
  52 H52           -1.0415    12.3306     3.2901 H       
@<TRIPOS>BOND
   1    1   22 1
   2    1   17 1
   3    1   23 1
   4    1   33 1
   5    2    3 ar
   6    2    4 ar
   7    2   34 1
   8    3    7 ar
   9    3   35 1
  10    4    5 ar
  11    4   19 1
  12    5    6 ar
  13    5   18 1
  14    6    7 ar
  15    6   36 1
  16    7    8 1
  17    8    9 2
  18    8   10 1
  19    9   29 1
  20    9   13 1
  21   10   11 2
  22   10   37 1
  23   11   12 1
  24   11   38 1
  25   12   13 1
  26   12   14 1
  27   13   16 2
  28   14   15 2
  29   14   17 1
  30   15   16 1
  31   17   39 1
  32   17   40 1
  33   19   20 1
  34   19   41 1
  35   19   42 1
  36   20   21 1
  37   20   26 1
  38   21   24 1
  39   21   43 1
  40   21   44 1
  41   22   23 1
  42   22   45 1
  43   22   46 1
  44   23   47 1
  45   23   48 1
  46   24   25 1
  47   24   49 1
  48   24   50 1
  49   25   26 1
  50   25   27 1
  51   25   28 1
  52   26   51 1
  53   26   52 1
  54   29   30 1
  55   29   31 1
  56   29   32 1

#	End of record

