#	Name: ASD03091361
#	Creating user name:	WinNT
#	Creation time:	15. 06. 2019 20:30

#	Modifying user name:	WinNT
#	Modification time:	15. 06. 2019 20:30

#	Program:	/corina/corina34_cracker 3.40 0067  02.08.2006

@<TRIPOS>MOLECULE
ASD03091361
  40   42    0    0    0
SMALL
NO_CHARGES


@<TRIPOS>ATOM
   1 C1            -0.0168     1.3884     0.0097 C.ar    
   2 C2             0.0021    -0.0041     0.0020 C.ar    
   3 C3            -3.6007     2.1510     0.0307 C.ar    
   4 C4            -4.1611     2.5698    -1.1615 C.ar    
   5 C5            -5.2706     3.3943    -1.1518 C.ar    
   6 C6            -5.8199     3.7997     0.0502 C.ar    
   7 C7            -5.2601     3.3802     1.2424 C.ar    
   8 C8            -4.1532     2.5522     1.2327 C.ar    
   9 C9             1.1658     2.1004     0.0022 C.ar    
  10 C10            1.1963    -0.6891    -0.0126 C.ar    
  11 C11            2.3832     1.4159    -0.0131 C.ar    
  12 C12            3.7862     1.8372    -0.0250 C.2     
  13 C13            2.3989     0.0099    -0.0203 C.ar    
  14 N14            3.7212    -0.3813    -0.0346 N.pl3   
  15 C15            4.5316     0.7207    -0.0385 C.2     
  16 C16            6.0381     0.6866    -0.0540 C.3     
  17 N17            6.5390     0.5475     1.3199 N.3     
  18 C18            8.0073     0.5106     1.3438 C.3     
  19 C19            8.4721     0.3710     2.7335 C.1     
  20 C20            8.8428     0.2596     3.8419 C.1     
  21 C21           -2.3911     1.2522     0.0201 C.3     
  22 O22           -1.2052     2.0495     0.0189 O.3     
  23 H23           -0.9288    -0.5517     0.0079 H       
  24 H24           -3.7319     2.2530    -2.1006 H       
  25 H25           -5.7080     3.7220    -2.0833 H       
  26 H26           -6.6863     4.4444     0.0578 H       
  27 H27           -5.6891     3.6972     2.1815 H       
  28 H28           -3.7158     2.2244     2.1642 H       
  29 H29            1.1498     3.1803     0.0078 H       
  30 H30            1.1993    -1.7691    -0.0177 H       
  31 H31            4.1517     2.8534    -0.0236 H       
  32 H32            4.0304    -1.3007    -0.0422 H       
  33 H33            6.3762    -0.1601    -0.6514 H       
  34 H34            6.4181     1.6118    -0.4874 H       
  35 H35            6.1862     1.2862     1.9099 H       
  36 H36            8.3591    -0.3373     0.7561 H       
  37 H37            8.4009     1.4346     0.9202 H       
  38 H38            9.1743     0.1600     4.8332 H       
  39 H39           -2.4017     0.6182     0.9067 H       
  40 H40           -2.4101     0.6279    -0.8732 H       
@<TRIPOS>BOND
   1    1    2 ar
   2    1    9 ar
   3    1   22 1
   4    2   10 ar
   5    2   23 1
   6    3   21 1
   7    3    4 ar
   8    3    8 ar
   9    4    5 ar
  10    4   24 1
  11    5    6 ar
  12    5   25 1
  13    6    7 ar
  14    6   26 1
  15    7    8 ar
  16    7   27 1
  17    8   28 1
  18    9   11 ar
  19    9   29 1
  20   10   13 ar
  21   10   30 1
  22   11   12 1
  23   11   13 ar
  24   12   15 2
  25   12   31 1
  26   13   14 1
  27   14   15 1
  28   14   32 1
  29   15   16 1
  30   16   17 1
  31   16   33 1
  32   16   34 1
  33   17   18 1
  34   17   35 1
  35   18   19 1
  36   18   36 1
  37   18   37 1
  38   19   20 3
  39   20   38 1
  40   21   22 1
  41   21   39 1
  42   21   40 1

#	End of record

