#	Name: ASD01815998
#	Creating user name:	WinNT
#	Creation time:	15. 06. 2019 19:34

#	Modifying user name:	WinNT
#	Modification time:	15. 06. 2019 19:34

#	Program:	/corina/corina34_cracker 3.40 0067  02.08.2006

@<TRIPOS>MOLECULE
ASD01815998
  48   53    0    0    0
SMALL
NO_CHARGES


@<TRIPOS>ATOM
   1 C1             0.0280     1.3781     0.5471 C.ar    
   2 C2             0.0461    -0.0073     0.5331 C.ar    
   3 C3             1.2276    -0.6930     0.3410 C.ar    
   4 C4             2.4161     0.0050     0.1589 C.ar    
   5 C5             2.3945     1.4097     0.1732 C.ar    
   6 C6             1.1966     2.0896     0.3678 C.ar    
   7 N7             3.6065    -0.6765    -0.0336 N.pl3   
   8 C8             4.7838    -0.0559    -0.2140 C.2     
   9 C9             4.8860     1.3155    -0.2200 C.2     
  10 C10            3.6666     2.1302    -0.0219 C.2     
  11 C11            5.9439     2.2429    -0.3802 C.2     
  12 N12            5.4048     3.4762    -0.2869 N.am    
  13 N13            4.0264     3.3820    -0.0701 N.2     
  14 C14            6.1210     4.6754    -0.3910 C.ar    
  15 O15            7.1202     1.9772    -0.5672 O.2     
  16 C16            3.5814    -2.0788    -0.0399 C.2     
  17 C17            6.3796     5.2254    -1.6394 C.ar    
  18 C18            7.0861     6.4081    -1.7390 C.ar    
  19 C19            7.5370     7.0453    -0.5974 C.ar    
  20 C20            7.2822     6.5018     0.6482 C.ar    
  21 C21            6.5700     5.3211     0.7560 C.ar    
  22 F22            6.3204     4.7901     1.9730 F       
  23 C23            3.4621    -2.8667    -1.1334 C.2     
  24 N24            3.6773    -2.8753     1.0389 N.2     
  25 C25            3.6171    -4.1236     0.6623 C.2     
  26 N26            3.4823    -4.1657    -0.6885 N.pl3   
  27 C27            3.3817    -5.3186    -1.4798 C.ar    
  28 C28            3.4170    -6.5738    -0.8878 C.ar    
  29 C29            3.3172    -7.7079    -1.6699 C.ar    
  30 C30            3.1823    -7.5939    -3.0414 C.ar    
  31 C31            3.1473    -6.3450    -3.6340 C.ar    
  32 C32            3.2409    -5.2072    -2.8564 C.ar    
  33 H33           -0.9044     1.9028     0.6943 H       
  34 H34           -0.8736    -0.5556     0.6742 H       
  35 H35            1.2294    -1.7729     0.3324 H       
  36 H36            1.1814     3.1694     0.3789 H       
  37 H37            5.6743    -0.6499    -0.3579 H       
  38 H38            6.0288     4.7287    -2.5319 H       
  39 H39            7.2872     6.8357    -2.7101 H       
  40 H40            8.0898     7.9695    -0.6790 H       
  41 H41            7.6360     7.0018     1.5377 H       
  42 H42            3.3688    -2.5376    -2.1578 H       
  43 H43            3.6690    -4.9813     1.3164 H       
  44 H44            3.5227    -6.6635     0.1833 H       
  45 H45            3.3449    -8.6846    -1.2099 H       
  46 H46            3.1045    -8.4820    -3.6509 H       
  47 H47            3.0422    -6.2591    -4.7054 H       
  48 H48            3.2131    -4.2321    -3.3198 H       
@<TRIPOS>BOND
   1    1    2 ar
   2    1    6 ar
   3    1   33 1
   4    2    3 ar
   5    2   34 1
   6    3    4 ar
   7    3   35 1
   8    4    5 ar
   9    4    7 1
  10    5    6 ar
  11    5   10 1
  12    6   36 1
  13    7    8 1
  14    7   16 1
  15    8    9 2
  16    8   37 1
  17    9   10 1
  18    9   11 1
  19   10   13 2
  20   11   12 am
  21   11   15 2
  22   12   13 1
  23   12   14 1
  24   14   17 ar
  25   14   21 ar
  26   16   23 2
  27   16   24 1
  28   17   18 ar
  29   17   38 1
  30   18   19 ar
  31   18   39 1
  32   19   20 ar
  33   19   40 1
  34   20   21 ar
  35   20   41 1
  36   21   22 1
  37   23   26 1
  38   23   42 1
  39   24   25 2
  40   25   26 1
  41   25   43 1
  42   26   27 1
  43   27   28 ar
  44   27   32 ar
  45   28   29 ar
  46   28   44 1
  47   29   30 ar
  48   29   45 1
  49   30   31 ar
  50   30   46 1
  51   31   32 ar
  52   31   47 1
  53   32   48 1

#	End of record

