#	Name: ASD01200294
#	Creating user name:	WinNT
#	Creation time:	15. 06. 2019 19:08

#	Modifying user name:	WinNT
#	Modification time:	15. 06. 2019 19:08

#	Program:	/corina/corina34_cracker 3.40 0067  02.08.2006

@<TRIPOS>MOLECULE
ASD01200294
  33   36    0    0    0
SMALL
NO_CHARGES


@<TRIPOS>ATOM
   1 C1             0.7701     2.3342     0.9875 C.ar    
   2 C2             0.4523     0.9988     1.1483 C.ar    
   3 C3             1.3832     0.0279     0.8373 C.ar    
   4 C4             2.6374     0.3861     0.3641 C.ar    
   5 C5             2.9541     1.7181     0.2033 C.ar    
   6 C6             2.0174     2.6925     0.5163 C.ar    
   7 C7             3.8035    -0.4856    -0.0341 C.3     
   8 C8             4.9297     0.4507    -0.4908 C.3     
   9 C9             4.3619     1.8661    -0.3213 C.3     
  10 C10            4.2460    -0.5084    -1.4981 C.3     
  11 C11            4.1030    -1.6982     0.8496 C.3     
  12 C12            5.0417    -1.6997    -1.9656 C.2     
  13 O13            6.2531    -1.6467    -1.9934 O.2     
  14 N14            4.4073    -2.8241    -2.3527 N.am    
  15 C15            5.1413    -3.9229    -2.7839 C.2     
  16 N16            4.6319    -5.0484    -3.1764 N.2     
  17 S17            6.8472    -3.9841    -2.8808 S.3     
  18 C18            6.7643    -5.6393    -3.4784 C.2     
  19 C19            5.4784    -5.9881    -3.5537 C.2     
  20 H20            0.0425     3.0959     1.2259 H       
  21 H21           -0.5225     0.7153     1.5168 H       
  22 H22            1.1341    -1.0154     0.9632 H       
  23 H23            2.2650     3.7362     0.3904 H       
  24 H24            5.9657     0.2850    -0.1953 H       
  25 H25            4.3478     2.3782    -1.2834 H       
  26 H26            4.9670     2.4260     0.3918 H       
  27 H27            3.5684    -0.0773    -2.2351 H       
  28 H28            3.2788    -2.4085     0.7833 H       
  29 H29            5.0225    -2.1760     0.5116 H       
  30 H30            4.2209    -1.3740     1.8836 H       
  31 H31            3.4385    -2.8664    -2.3304 H       
  32 H32            7.6068    -6.2618    -3.7413 H       
  33 H33            5.1566    -6.9614    -3.8935 H       
@<TRIPOS>BOND
   1    1    2 ar
   2    1    6 ar
   3    1   20 1
   4    2    3 ar
   5    2   21 1
   6    3    4 ar
   7    3   22 1
   8    4    5 ar
   9    4    7 1
  10    5    6 ar
  11    5    9 1
  12    6   23 1
  13    7   11 1
  14    7    8 1
  15    7   10 1
  16    8    9 1
  17    8   10 1
  18    8   24 1
  19    9   25 1
  20    9   26 1
  21   10   12 1
  22   10   27 1
  23   11   28 1
  24   11   29 1
  25   11   30 1
  26   12   13 2
  27   12   14 am
  28   14   15 1
  29   14   31 1
  30   15   16 2
  31   15   17 1
  32   16   19 1
  33   17   18 1
  34   18   19 2
  35   18   32 1
  36   19   33 1

#	End of record

