#	Name: ASD01915335
#	Creating user name:	WinNT
#	Creation time:	15. 06. 2019 20:05

#	Modifying user name:	WinNT
#	Modification time:	15. 06. 2019 20:05

#	Program:	/corina/corina34_cracker 3.40 0067  02.08.2006

@<TRIPOS>MOLECULE
ASD01915335
  45   48    0    0    0
SMALL
NO_CHARGES


@<TRIPOS>ATOM
   1 C1            -0.0045     1.3259    -0.0199 C.2     
   2 N2             0.0095    -0.0259    -0.0292 N.pl3   
   3 C3            -1.3053    -0.4565    -0.0127 C.2     
   4 C4            -2.0824     0.6211     0.0061 C.2     
   5 O5            -1.2945     1.7198     0.0061 O.3     
   6 N6             1.2446     1.7427    -0.0352 N.2     
   7 C7             2.0715     0.6901    -0.0543 C.2     
   8 N8             1.3546    -0.4151    -0.0513 N.2     
   9 C9            -3.5893     0.6189     0.0275 C.3     
  10 C10           -1.7720    -1.8894    -0.0162 C.3     
  11 C11           -4.0814     1.2185     1.3463 C.3     
  12 O12           -4.0902     1.4114    -1.0812 O.3     
  13 C13           -5.2806     1.0541    -1.5993 C.2     
  14 N14           -5.8025     1.7480    -2.6301 N.am    
  15 O15           -5.8842     0.1059    -1.1375 O.2     
  16 C16           -6.9827     1.3105    -3.2419 C.ar    
  17 C17           -7.8972     2.2345    -3.7300 C.ar    
  18 C18           -9.0608     1.7996    -4.3338 C.ar    
  19 C19           -9.3156     0.4456    -4.4524 C.ar    
  20 C20           -8.4069    -0.4770    -3.9674 C.ar    
  21 C21           -7.2390    -0.0485    -3.3673 C.ar    
  22 C22            3.5535     0.7573    -0.0757 C.ar    
  23 C23            4.1970     1.9934    -0.0767 C.ar    
  24 C24            5.5753     2.0513    -0.0967 C.ar    
  25 C25            6.3196     0.8828    -0.1164 C.ar    
  26 C26            5.6839    -0.3483    -0.1160 C.ar    
  27 C27            4.3060    -0.4155    -0.0893 C.ar    
  28 F28            7.6690     0.9440    -0.1364 F       
  29 H29           -3.9525    -0.4047    -0.0641 H       
  30 H30           -0.9074    -2.5530    -0.0335 H       
  31 H31           -2.3600    -2.0823     0.8811 H       
  32 H32           -2.3859    -2.0695    -0.8986 H       
  33 H33           -3.7181     2.2421     1.4380 H       
  34 H34           -5.1712     1.2170     1.3619 H       
  35 H35           -3.7053     0.6236     2.1787 H       
  36 H36           -5.3602     2.5506    -2.9479 H       
  37 H37           -7.6990     3.2921    -3.6374 H       
  38 H38           -9.7726     2.5177    -4.7133 H       
  39 H39          -10.2263     0.1080    -4.9246 H       
  40 H40           -8.6087    -1.5338    -4.0615 H       
  41 H41           -6.5296    -0.7696    -2.9890 H       
  42 H42            3.6176     2.9048    -0.0621 H       
  43 H43            6.0749     3.0088    -0.0975 H       
  44 H44            6.2678    -1.2567    -0.1317 H       
  45 H45            3.8113    -1.3755    -0.0886 H       
@<TRIPOS>BOND
   1    1    2 1
   2    1    6 2
   3    1    5 1
   4    2    3 1
   5    2    8 1
   6    3    4 2
   7    3   10 1
   8    4    5 1
   9    4    9 1
  10    6    7 1
  11    7    8 2
  12    7   22 1
  13    9   11 1
  14    9   12 1
  15    9   29 1
  16   10   30 1
  17   10   31 1
  18   10   32 1
  19   11   33 1
  20   11   34 1
  21   11   35 1
  22   12   13 1
  23   13   14 am
  24   13   15 2
  25   14   16 1
  26   14   36 1
  27   16   17 ar
  28   16   21 ar
  29   17   18 ar
  30   17   37 1
  31   18   19 ar
  32   18   38 1
  33   19   20 ar
  34   19   39 1
  35   20   21 ar
  36   20   40 1
  37   21   41 1
  38   22   23 ar
  39   22   27 ar
  40   23   24 ar
  41   23   42 1
  42   24   25 ar
  43   24   43 1
  44   25   26 ar
  45   25   28 1
  46   26   27 ar
  47   26   44 1
  48   27   45 1

#	End of record

