#	Name: ASD02560245
#	Creating user name:	WinNT
#	Creation time:	15. 06. 2019 20:24

#	Modifying user name:	WinNT
#	Modification time:	15. 06. 2019 20:24

#	Program:	/corina/corina34_cracker 3.40 0067  02.08.2006

@<TRIPOS>MOLECULE
ASD02560245
  33   35    0    0    0
SMALL
NO_CHARGES


@<TRIPOS>ATOM
   1 C1             0.0340     1.3402     0.4053 C.2     
   2 N2             0.0524    -0.0065     0.3955 N.2     
   3 C3             1.2618    -0.4060     0.0866 C.2     
   4 O4             2.0333     0.6756    -0.1055 O.3     
   5 C5             1.2658     1.7693     0.0937 C.2     
   6 C6             1.7110     3.2050    -0.0145 C.3     
   7 N7             1.6741    -1.7210    -0.0228 N.pl3   
   8 C8             0.7412    -2.7580     0.0861 C.ar    
   9 C9            -0.5751    -2.5533    -0.3068 C.ar    
  10 C10           -1.4944    -3.5783    -0.1984 C.ar    
  11 C11           -1.1046    -4.8092     0.3021 C.ar    
  12 C12            0.2071    -5.0154     0.6949 C.ar    
  13 C13            1.1313    -3.9952     0.5820 C.ar    
  14 C14            2.2094     3.6788     1.3264 C.ar    
  15 C15            3.5439     3.5323     1.6599 C.ar    
  16 C16            4.0008     3.9675     2.8912 C.ar    
  17 C17            3.1241     4.5486     3.7880 C.ar    
  18 C18            1.7905     4.6950     3.4555 C.ar    
  19 C19            1.3336     4.2657     2.2221 C.ar    
  20 Cl20          -0.3414     4.4495     1.8047 Cl      
  21 Cl21           4.6449     2.8019     0.5340 Cl      
  22 F22           -2.0056    -5.8104     0.4077 F       
  23 H23           -0.8214     1.9633     0.6209 H       
  24 H24            2.5134     3.2822    -0.7483 H       
  25 H25            0.8703     3.8234    -0.3289 H       
  26 H26            2.6102    -1.9248    -0.1750 H       
  27 H27           -0.8797    -1.5932    -0.6965 H       
  28 H28           -2.5180    -3.4196    -0.5038 H       
  29 H29            0.5089    -5.9761     1.0853 H       
  30 H30            2.1544    -4.1565     0.8882 H       
  31 H31            5.0426     3.8528     3.1519 H       
  32 H32            3.4812     4.8882     4.7490 H       
  33 H33            1.1058     5.1485     4.1569 H       
@<TRIPOS>BOND
   1    1    2 1
   2    1    5 2
   3    1   23 1
   4    2    3 2
   5    3    4 1
   6    3    7 1
   7    4    5 1
   8    5    6 1
   9    6   14 1
  10    6   24 1
  11    6   25 1
  12    7    8 1
  13    7   26 1
  14    8    9 ar
  15    8   13 ar
  16    9   10 ar
  17    9   27 1
  18   10   11 ar
  19   10   28 1
  20   11   12 ar
  21   11   22 1
  22   12   13 ar
  23   12   29 1
  24   13   30 1
  25   14   15 ar
  26   14   19 ar
  27   15   16 ar
  28   15   21 1
  29   16   17 ar
  30   16   31 1
  31   17   18 ar
  32   17   32 1
  33   18   19 ar
  34   18   33 1
  35   19   20 1

#	End of record

