#	Name: ASD02039132
#	Creating user name:	WinNT
#	Creation time:	15. 06. 2019 20:17

#	Modifying user name:	WinNT
#	Modification time:	15. 06. 2019 20:17

#	Program:	/corina/corina34_cracker 3.40 0067  02.08.2006

@<TRIPOS>MOLECULE
ASD02039132
  36   38    0    0    0
SMALL
NO_CHARGES


@<TRIPOS>ATOM
   1 N1             0.0233     1.2845    -0.3600 N.2     
   2 N2             0.0397    -0.0019    -0.3609 N.2     
   3 C3             1.2243     1.7332    -0.0872 C.2     
   4 O4             2.0203     0.6621     0.0887 O.3     
   5 C5             1.2410    -0.4221    -0.0911 C.2     
   6 N6             1.6033     3.0608     0.0028 N.pl3   
   7 C7             0.6407     4.0701    -0.0881 C.ar    
   8 C8             1.6809    -1.8603     0.0030 C.3     
   9 C9             2.1405    -2.3348    -1.3515 C.ar    
  10 C10           -0.6623     3.8292     0.3297 C.ar    
  11 C11            0.9860     5.3180    -0.5908 C.ar    
  12 C12            0.0324     6.3133    -0.6788 C.ar    
  13 C13           -1.2647     6.0686    -0.2670 C.ar    
  14 C14            3.4661    -2.1944    -1.7187 C.ar    
  15 C15            1.2371    -2.9149    -2.2226 C.ar    
  16 C16            1.6560    -3.3511    -3.4647 C.ar    
  17 C17            2.9844    -3.2066    -3.8376 C.ar    
  18 C18            3.8899    -2.6285    -2.9598 C.ar    
  19 C19           -1.6106     4.8287     0.2390 C.ar    
  20 O20            3.3991    -3.6352    -5.0588 O.3     
  21 C21           -3.0257     4.5664     0.6861 C.3     
  22 F22           -3.7967     5.7177     0.4931 F       
  23 F23           -3.5637     3.5139    -0.0622 F       
  24 F24           -3.0303     4.2241     2.0426 F       
  25 H25            2.5371     3.2911     0.1289 H       
  26 H26            2.5022    -1.9432     0.7150 H       
  27 H27            0.8455    -2.4746     0.3390 H       
  28 H28           -0.9332     2.8612     0.7246 H       
  29 H29            1.9990     5.5099    -0.9123 H       
  30 H30            0.3002     7.2840    -1.0693 H       
  31 H31           -2.0084     6.8486    -0.3369 H       
  32 H32            4.1707    -1.7446    -1.0349 H       
  33 H33            0.2031    -3.0276    -1.9317 H       
  34 H34            0.9500    -3.8045    -4.1447 H       
  35 H35            4.9246    -2.5149    -3.2478 H       
  36 H36            3.3370    -2.9648    -5.7529 H       
@<TRIPOS>BOND
   1    1    2 1
   2    1    3 2
   3    2    5 2
   4    3    4 1
   5    3    6 1
   6    4    5 1
   7    5    8 1
   8    6    7 1
   9    6   25 1
  10    7   10 ar
  11    7   11 ar
  12    8    9 1
  13    8   26 1
  14    8   27 1
  15    9   14 ar
  16    9   15 ar
  17   10   19 ar
  18   10   28 1
  19   11   12 ar
  20   11   29 1
  21   12   13 ar
  22   12   30 1
  23   13   19 ar
  24   13   31 1
  25   14   18 ar
  26   14   32 1
  27   15   16 ar
  28   15   33 1
  29   16   17 ar
  30   16   34 1
  31   17   18 ar
  32   17   20 1
  33   18   35 1
  34   19   21 1
  35   20   36 1
  36   21   22 1
  37   21   23 1
  38   21   24 1

#	End of record

