#	Name: ASD01200199
#	Creating user name:	WinNT
#	Creation time:	15. 06. 2019 19:08

#	Modifying user name:	WinNT
#	Modification time:	15. 06. 2019 19:08

#	Program:	/corina/corina34_cracker 3.40 0067  02.08.2006

@<TRIPOS>MOLECULE
ASD01200199
  58   61    0    0    0
SMALL
NO_CHARGES


@<TRIPOS>ATOM
   1 C1            -0.0171     1.3853     0.0060 C.ar    
   2 N2             0.0021    -0.0041     0.0020 N.am    
   3 C3            -1.1504    -0.6943     0.1110 C.2     
   4 C4            -1.1435    -2.1964    -0.0102 C.3     
   5 S5            -2.8340    -2.8261     0.1804 S.3     
   6 C6            -2.6233    -4.6195     0.0068 C.3     
   7 N7            -3.8236    -5.3191     0.4834 N.am    
   8 C8            -4.3249    -6.0105    -0.5573 C.2     
   9 C9            -3.4923    -5.8015    -1.7463 C.2     
  10 C10           -2.4825    -4.9890    -1.4516 C.2     
  11 C11           -3.7435    -6.4162    -3.0991 C.3     
  12 C12           -1.4019    -4.5242    -2.3936 C.3     
  13 O13           -5.3217    -6.7060    -0.5173 O.2     
  14 C14           -4.3738    -5.2727     1.8404 C.3     
  15 C15           -5.3587    -4.1368     1.9445 C.ar    
  16 C16           -6.6947    -4.3489     1.6596 C.ar    
  17 C17           -7.5998    -3.3113     1.7492 C.ar    
  18 C18           -7.1747    -2.0406     2.1276 C.ar    
  19 C19           -5.8310    -1.8418     2.4193 C.ar    
  20 C20           -4.9297    -2.8791     2.3312 C.ar    
  21 O21           -2.1929    -0.1065     0.3067 O.2     
  22 N22           -1.1792     2.0224     0.0192 N.ar    
  23 C23           -1.2464     3.3372     0.0235 C.ar    
  24 C24           -0.0812     4.1064     0.0137 C.ar    
  25 C25            1.1630     3.4574    -0.0003 C.ar    
  26 C26            1.1852     2.0883     0.0019 C.ar    
  27 C27           -0.1568     5.5792     0.0175 C.2     
  28 O28           -1.3567     6.1922     0.0305 O.3     
  29 O29            0.8629     6.2399     0.0089 O.2     
  30 C30           -1.3552     7.6442     0.0335 C.3     
  31 O31           -7.8837    -0.8861     2.2609 O.3     
  32 C32           -7.1391     0.0347     3.0763 C.3     
  33 C33           -5.6733    -0.3872     2.8180 C.3     
  34 H34            0.8449    -0.4772    -0.0793 H       
  35 H35           -0.7583    -2.4800    -0.9896 H       
  36 H36           -0.5079    -2.6207     0.7670 H       
  37 H37           -1.7482    -4.9507     0.5659 H       
  38 H38           -4.6380    -7.0377    -3.0553 H       
  39 H39           -3.8858    -5.6262    -3.8364 H       
  40 H40           -2.8886    -7.0295    -3.3839 H       
  41 H41           -1.5671    -4.9596    -3.3792 H       
  42 H42           -1.4273    -3.4371    -2.4677 H       
  43 H43           -0.4296    -4.8400    -2.0153 H       
  44 H44           -4.8793    -6.2131     2.0598 H       
  45 H45           -3.5653    -5.1193     2.5552 H       
  46 H46           -7.0317    -5.3318     1.3651 H       
  47 H47           -8.6418    -3.4854     1.5246 H       
  48 H48           -3.8870    -2.7092     2.5553 H       
  49 H49           -2.2101     3.8246     0.0343 H       
  50 H50            2.0819     4.0248    -0.0085 H       
  51 H51            2.1262     1.5585    -0.0086 H       
  52 H52           -2.3824     8.0086     0.0444 H       
  53 H53           -0.8323     8.0051     0.9192 H       
  54 H54           -0.8497     8.0089    -0.8607 H       
  55 H55           -7.3082     1.0615     2.7521 H       
  56 H56           -7.3961    -0.0864     4.1287 H       
  57 H57           -5.0757    -0.2945     3.7248 H       
  58 H58           -5.2381     0.1943     2.0053 H       
@<TRIPOS>BOND
   1    1    2 1
   2    1   22 ar
   3    1   26 ar
   4    2    3 am
   5    2   34 1
   6    3    4 1
   7    3   21 2
   8    4    5 1
   9    4   35 1
  10    4   36 1
  11    5    6 1
  12    6    7 1
  13    6   10 1
  14    6   37 1
  15    7    8 am
  16    7   14 1
  17    8    9 1
  18    8   13 2
  19    9   10 2
  20    9   11 1
  21   10   12 1
  22   11   38 1
  23   11   39 1
  24   11   40 1
  25   12   41 1
  26   12   42 1
  27   12   43 1
  28   14   15 1
  29   14   44 1
  30   14   45 1
  31   15   16 ar
  32   15   20 ar
  33   16   17 ar
  34   16   46 1
  35   17   18 ar
  36   17   47 1
  37   18   19 ar
  38   18   31 1
  39   19   20 ar
  40   19   33 1
  41   20   48 1
  42   22   23 ar
  43   23   24 ar
  44   23   49 1
  45   24   25 ar
  46   24   27 1
  47   25   26 ar
  48   25   50 1
  49   26   51 1
  50   27   28 1
  51   27   29 2
  52   28   30 1
  53   30   52 1
  54   30   53 1
  55   30   54 1
  56   31   32 1
  57   32   33 1
  58   32   55 1
  59   32   56 1
  60   33   57 1
  61   33   58 1

#	End of record

