#	Name: ASD00840956
#	Creating user name:	WinNT
#	Creation time:	15. 06. 2019 18:40

#	Modifying user name:	WinNT
#	Modification time:	15. 06. 2019 18:40

#	Program:	/corina/corina34_cracker 3.40 0067  02.08.2006

@<TRIPOS>MOLECULE
ASD00840956
  97  102    0    0    0
SMALL
NO_CHARGES


@<TRIPOS>ATOM
   1 F1             6.0042    -1.9498    -2.0972 F       
   2 N2             0.9793     1.4231    -0.8148 N.ar    
   3 C3             1.2550     0.1326    -0.9023 C.ar    
   4 C4             1.1978    -0.6812     0.2221 C.ar    
   5 C5             0.8477    -0.1239     1.4393 C.ar    
   6 C6             0.5659     1.2345     1.4891 C.ar    
   7 C7             0.6426     1.9830     0.3317 C.ar    
   8 C8             1.5122    -2.1513     0.1175 C.3     
   9 C9             1.2552    -2.8439     1.4388 C.2     
  10 C10            0.6851    -2.7971    -0.9960 C.3     
  11 C11           -0.7766    -2.5108    -0.7664 C.2     
  12 N12           -1.7045    -3.0448    -1.5851 N.am    
  13 O13           -1.1179    -1.7999     0.1551 O.2     
  14 C14           -3.1219    -2.6831    -1.4469 C.3     
  15 C15           -3.9469    -3.9663    -1.3079 C.3     
  16 C16           -3.6467    -4.8915    -2.4894 C.3     
  17 C17           -2.1633    -5.2678    -2.4808 C.3     
  18 C18           -1.3172    -3.9950    -2.6367 C.3     
  19 C19           -4.4948    -6.1595    -2.3722 C.3     
  20 C20           -5.9794    -5.7849    -2.3824 C.3     
  21 C21           -6.8229    -7.0606    -2.3264 C.3     
  22 N22           -6.5060    -7.9096    -3.4819 N.3     
  23 C23           -5.0963    -8.3210    -3.4678 C.3     
  24 C24           -4.2013    -7.0829    -3.5579 C.3     
  25 C25           -7.3948    -9.0779    -3.5363 C.3     
  26 O26            0.1914    -2.9223     2.0161 O.2     
  27 N27            2.4268    -3.3560     1.8517 N.am    
  28 C28            2.9891    -2.3608    -0.1266 C.ar    
  29 C29            3.4646    -3.0902     0.9559 C.ar    
  30 C30            3.8321    -1.9787    -1.1460 C.ar    
  31 C31            5.1736    -2.3223    -1.0989 C.ar    
  32 C32            5.6603    -3.0502    -0.0237 C.ar    
  33 C33            4.8139    -3.4334     0.9990 C.ar    
  34 F34            6.9680    -3.3862     0.0241 F       
  35 C35            2.3408    -5.9038     2.8889 C.ar    
  36 C36            1.0865    -6.3281     2.4757 C.ar    
  37 C37            3.3740    -6.8141     3.0027 C.ar    
  38 C38            3.1585    -8.1468     2.7048 C.ar    
  39 C39            1.9089    -8.5723     2.2927 C.ar    
  40 C40            0.8727    -7.6663     2.1778 C.ar    
  41 H41            1.7431    -9.6140     2.0606 H       
  42 O42            0.0686    -5.4348     2.3634 O.3     
  43 C43           -1.1957    -5.9426     1.9325 C.3     
  44 C44           -2.2093    -4.7984     1.8665 C.3     
  45 C45           -7.2072    -9.7997    -4.8722 C.3     
  46 C46           -8.1329   -11.0166    -4.9289 C.3     
  47 O47            1.5964    -0.4017    -2.1018 O.3     
  48 C48            2.0588    -0.2763    -4.4706 C.3     
  49 C49            1.5286     0.4608    -3.2391 C.3     
  50 S50            2.6183    -4.2040     3.2611 S.o2    
  51 O51            3.9897    -4.0895     3.6153 O.2     
  52 O52            1.5582    -3.8027     4.1181 O.2     
  53 H53            0.7947    -0.7320     2.3303 H       
  54 H54            0.2892     1.7007     2.4232 H       
  55 H55            0.4247     3.0403     0.3650 H       
  56 H56            0.9888    -2.3866    -1.9589 H       
  57 H57            0.8492    -3.8746    -0.9922 H       
  58 H58           -3.2562    -2.0644    -0.5596 H       
  59 H59           -3.4466    -2.1338    -2.3306 H       
  60 H60           -3.6846    -4.4685    -0.3767 H       
  61 H61           -5.0082    -3.7176    -1.3012 H       
  62 H62           -3.8861    -4.3796    -3.4215 H       
  63 H63           -1.9177    -5.7577    -1.5386 H       
  64 H64           -1.9550    -5.9453    -3.3088 H       
  65 H65           -1.4961    -3.5553    -3.6178 H       
  66 H66           -0.2610    -4.2432    -2.5322 H       
  67 H67           -4.2552    -6.6733    -1.4412 H       
  68 H68           -6.2036    -5.1621    -1.5164 H       
  69 H69           -6.2100    -5.2360    -3.2955 H       
  70 H70           -6.6020    -7.6020    -1.4065 H       
  71 H71           -7.8806    -6.7980    -2.3480 H       
  72 H72           -4.8835    -8.8564    -2.5426 H       
  73 H73           -4.9000    -8.9737    -4.3184 H       
  74 H74           -4.4039    -6.5544    -4.4895 H       
  75 H75           -3.1551    -7.3875    -3.5317 H       
  76 H76           -7.1523    -9.7573    -2.7191 H       
  77 H77           -8.4304    -8.7513    -3.4421 H       
  78 H78            3.4481    -1.4122    -1.9814 H       
  79 H79            5.1995    -3.9999     1.8337 H       
  80 H80            4.3508    -6.4842     3.3244 H       
  81 H81            3.9675    -8.8567     2.7938 H       
  82 H82           -0.1032    -7.9993     1.8566 H       
  83 H83           -1.0895    -6.3914     0.9448 H       
  84 H84           -1.5442    -6.6964     2.6385 H       
  85 H85           -2.3155    -4.3497     2.8541 H       
  86 H86           -1.8608    -4.0446     1.1605 H       
  87 H87           -3.1736    -5.1858     1.5378 H       
  88 H88           -7.4496    -9.1204    -5.6894 H       
  89 H89           -6.1715   -10.1264    -4.9664 H       
  90 H90           -7.8904   -11.6959    -4.1117 H       
  91 H91           -9.1685   -10.6899    -4.8347 H       
  92 H92           -7.9992   -11.5308    -5.8806 H       
  93 H93            1.4018    -1.1144    -4.7032 H       
  94 H94            2.0891     0.4079    -5.3185 H       
  95 H95            3.0632    -0.6477    -4.2673 H       
  96 H96            0.4934     0.7560    -3.4101 H       
  97 H97            2.1345     1.3487    -3.0584 H       
@<TRIPOS>BOND
   1    1   31 1
   2    2    3 ar
   3    2    7 ar
   4    3    4 ar
   5    3   47 1
   6    4    5 ar
   7    4    8 1
   8    5    6 ar
   9    5   53 1
  10    6    7 ar
  11    6   54 1
  12    7   55 1
  13    8    9 1
  14    8   10 1
  15    8   28 1
  16    9   26 2
  17    9   27 am
  18   10   11 1
  19   10   56 1
  20   10   57 1
  21   11   12 am
  22   11   13 2
  23   12   14 1
  24   12   18 1
  25   14   15 1
  26   14   58 1
  27   14   59 1
  28   15   16 1
  29   15   60 1
  30   15   61 1
  31   16   17 1
  32   16   19 1
  33   16   62 1
  34   17   18 1
  35   17   63 1
  36   17   64 1
  37   18   65 1
  38   18   66 1
  39   19   20 1
  40   19   24 1
  41   19   67 1
  42   20   21 1
  43   20   68 1
  44   20   69 1
  45   21   22 1
  46   21   70 1
  47   21   71 1
  48   22   23 1
  49   22   25 1
  50   23   24 1
  51   23   72 1
  52   23   73 1
  53   24   74 1
  54   24   75 1
  55   25   45 1
  56   25   76 1
  57   25   77 1
  58   27   50 am
  59   27   29 1
  60   28   29 ar
  61   28   30 ar
  62   29   33 ar
  63   30   31 ar
  64   30   78 1
  65   31   32 ar
  66   32   33 ar
  67   32   34 1
  68   33   79 1
  69   35   36 ar
  70   35   37 ar
  71   35   50 1
  72   36   42 1
  73   36   40 ar
  74   37   38 ar
  75   37   80 1
  76   38   39 ar
  77   38   81 1
  78   39   40 ar
  79   39   41 1
  80   40   82 1
  81   42   43 1
  82   43   44 1
  83   43   83 1
  84   43   84 1
  85   44   85 1
  86   44   86 1
  87   44   87 1
  88   45   46 1
  89   45   88 1
  90   45   89 1
  91   46   90 1
  92   46   91 1
  93   46   92 1
  94   47   49 1
  95   48   49 1
  96   48   93 1
  97   48   94 1
  98   48   95 1
  99   49   96 1
 100   49   97 1
 101   50   51 2
 102   50   52 2

#	End of record

