#	Name: ASD01884138
#	Creating user name:	WinNT
#	Creation time:	15. 06. 2019 19:47

#	Modifying user name:	WinNT
#	Modification time:	15. 06. 2019 19:47

#	Program:	/corina/corina34_cracker 3.40 0067  02.08.2006

@<TRIPOS>MOLECULE
ASD01884138
  40   43    0    0    0
SMALL
NO_CHARGES


@<TRIPOS>ATOM
   1 C1            -0.4068     0.7381    -1.1129 C.2     
   2 C2             0.0021    -0.0041     0.0020 C.2     
   3 C3            -0.8269    -0.0443     1.1395 C.2     
   4 C4            -1.9994     0.6166     1.1695 C.2     
   5 N5            -2.4374     1.3512     0.1078 N.pl3   
   6 C6            -1.6856     1.4465    -1.0375 C.2     
   7 C7             0.4053     0.8068    -2.2903 C.1     
   8 N8             1.0495     0.8614    -3.2244 N.1     
   9 N9             1.2031    -0.6883    -0.0141 N.pl3   
  10 C10            1.2312    -2.1537     0.0880 C.3     
  11 C11            2.1626    -2.5501     1.2378 C.3     
  12 C12            3.5351    -1.9087     1.0215 C.3     
  13 C13            3.3932    -0.3849     1.0183 C.3     
  14 C14            2.4754     0.0357    -0.1397 C.3     
  15 C15           -3.5559     2.0986    -0.1228 C.2     
  16 N16           -3.4568     2.5896    -1.3293 N.2     
  17 N17           -2.3555     2.2107    -1.8769 N.2     
  18 C18            4.4642    -2.3240     2.1329 C.ar    
  19 C19            5.6264    -3.0133     1.8410 C.ar    
  20 C20            6.4786    -3.3943     2.8605 C.ar    
  21 C21            6.1689    -3.0857     4.1719 C.ar    
  22 C22            5.0072    -2.3956     4.4638 C.ar    
  23 C23            4.1571    -2.0108     3.4438 C.ar    
  24 H24           -0.5171    -0.6153     2.0023 H       
  25 H25           -2.6100     0.5631     2.0588 H       
  26 H26            0.2261    -2.5255     0.2872 H       
  27 H27            1.6017    -2.5779    -0.8452 H       
  28 H28            1.7433    -2.2025     2.1820 H       
  29 H29            2.2679    -3.6347     1.2633 H       
  30 H30            3.9430    -2.2374     0.0656 H       
  31 H31            2.9623    -0.0576     1.9645 H       
  32 H32            4.3743     0.0717     0.8876 H       
  33 H33            2.9497    -0.2104    -1.0897 H       
  34 H34            2.2905     1.1087    -0.0882 H       
  35 H35           -4.3731     2.2551     0.5657 H       
  36 H36            5.8684    -3.2544     0.8165 H       
  37 H37            7.3862    -3.9334     2.6326 H       
  38 H38            6.8344    -3.3840     4.9685 H       
  39 H39            4.7651    -2.1548     5.4883 H       
  40 H40            3.2514    -1.4684     3.6715 H       
@<TRIPOS>BOND
   1    1    2 2
   2    1    7 1
   3    1    6 1
   4    2    3 1
   5    2    9 1
   6    3    4 2
   7    3   24 1
   8    4    5 1
   9    4   25 1
  10    5    6 1
  11    5   15 1
  12    6   17 2
  13    7    8 3
  14    9   10 1
  15    9   14 1
  16   10   11 1
  17   10   26 1
  18   10   27 1
  19   11   12 1
  20   11   28 1
  21   11   29 1
  22   12   13 1
  23   12   18 1
  24   12   30 1
  25   13   14 1
  26   13   31 1
  27   13   32 1
  28   14   33 1
  29   14   34 1
  30   15   16 2
  31   15   35 1
  32   16   17 1
  33   18   19 ar
  34   18   23 ar
  35   19   20 ar
  36   19   36 1
  37   20   21 ar
  38   20   37 1
  39   21   22 ar
  40   21   38 1
  41   22   23 ar
  42   22   39 1
  43   23   40 1

#	End of record

