#	Name: ASD01840362
#	Creating user name:	WinNT
#	Creation time:	15. 06. 2019 19:37

#	Modifying user name:	WinNT
#	Modification time:	15. 06. 2019 19:37

#	Program:	/corina/corina34_cracker 3.40 0067  02.08.2006

@<TRIPOS>MOLECULE
ASD01840362
  40   42    0    0    0
SMALL
NO_CHARGES


@<TRIPOS>ATOM
   1 C1             0.2610     1.7549    -0.9980 C.ar    
   2 C2             0.3840     0.5320    -1.6193 C.ar    
   3 N3             1.4992    -0.1678    -1.4965 N.ar    
   4 N4             2.5001     0.2427    -0.8112 N.ar    
   5 C5             1.3549     2.2266    -0.2363 C.ar    
   6 C6             1.5104     3.4570     0.5172 C.2     
   7 C7             2.4929     1.4123    -0.1669 C.ar    
   8 S8             3.7251     2.1827     0.8223 S.3     
   9 C9             2.7119     3.5785     1.1344 C.2     
  10 C10           -1.0000     2.5692    -1.1311 C.3     
  11 C11           -0.7564    -0.0106    -2.4416 C.3     
  12 N12            0.5177     4.4241     0.5986 N.pl3   
  13 C13            3.1098     4.7235     1.9521 C.2     
  14 O14            2.3396     5.6522     2.1150 O.2     
  15 N15            4.3293     4.7508     2.5253 N.am    
  16 C16            5.0751     5.6832     3.3841 C.3     
  17 C17            5.4973     3.8585     2.5728 C.3     
  18 C18            6.3694     5.1051     2.7952 C.3     
  19 N19            6.8137     5.7606     1.5626 N.am    
  20 S20            8.4313     5.9446     1.2595 S.o2    
  21 C21            9.0534     4.2503     1.0779 C.3     
  22 O22            8.4789     6.6292     0.0152 O.2     
  23 O23            8.9442     6.5399     2.4434 O.2     
  24 H24           -1.6441     2.3847    -0.2714 H       
  25 H25           -0.7458     3.6283    -1.1740 H       
  26 H26           -1.5222     2.2837    -2.0443 H       
  27 H27           -0.6496     0.3211    -3.4744 H       
  28 H28           -0.7434    -1.0999    -2.4066 H       
  29 H29           -1.7010     0.3547    -2.0385 H       
  30 H30           -0.4030     4.1919     0.4002 H       
  31 H31            0.7448     5.3320     0.8537 H       
  32 H32            4.9129     6.7309     3.1308 H       
  33 H33            4.9553     5.4830     4.4488 H       
  34 H34            5.4889     3.1773     3.4236 H       
  35 H35            5.6950     3.3516     1.6283 H       
  36 H36            7.1682     4.9651     3.5235 H       
  37 H37            6.1604     6.0867     0.9241 H       
  38 H38            8.5377     3.7604     0.2520 H       
  39 H39           10.1238     4.2762     0.8738 H       
  40 H40            8.8725     3.6962     1.9990 H       
@<TRIPOS>BOND
   1    1    2 ar
   2    1    5 ar
   3    1   10 1
   4    2   11 1
   5    2    3 ar
   6    3    4 ar
   7    4    7 ar
   8    5    7 ar
   9    5    6 1
  10    6    9 2
  11    6   12 1
  12    7    8 1
  13    8    9 1
  14    9   13 1
  15   10   24 1
  16   10   25 1
  17   10   26 1
  18   11   27 1
  19   11   28 1
  20   11   29 1
  21   12   30 1
  22   12   31 1
  23   13   14 2
  24   13   15 am
  25   15   16 1
  26   15   17 1
  27   16   18 1
  28   16   32 1
  29   16   33 1
  30   17   18 1
  31   17   34 1
  32   17   35 1
  33   18   19 1
  34   18   36 1
  35   19   20 am
  36   19   37 1
  37   20   21 1
  38   20   22 2
  39   20   23 2
  40   21   38 1
  41   21   39 1
  42   21   40 1

#	End of record

