#	Name: ASD05730133
#	Creating user name:	WinNT
#	Creation time:	15. 06. 2019 21:02

#	Modifying user name:	WinNT
#	Modification time:	15. 06. 2019 21:02

#	Program:	/corina/corina34_cracker 3.40 0067  02.08.2006

@<TRIPOS>MOLECULE
ASD05730133
  90   95    0    0    0
SMALL
NO_CHARGES


@<TRIPOS>ATOM
   1 N1            -0.0132     1.3947     0.0608 N.pl3   
   2 C2             0.0050    -0.0044     0.0403 C.ar    
   3 C3            -1.0327    -0.7037    -0.5620 C.ar    
   4 C4            -1.0147    -2.0841    -0.5822 C.ar    
   5 C5             0.0409    -2.7733     0.0003 C.ar    
   6 C6             1.0786    -2.0741     0.6026 C.ar    
   7 C7             1.0637    -0.6936     0.6173 C.ar    
   8 N8             0.0586    -4.1737    -0.0194 N.pl3   
   9 C9             1.2583    -4.8475    -0.1382 C.ar    
  10 N10            1.2603    -6.1683    -0.0414 N.ar    
  11 C11            2.3941    -6.8517    -0.1502 C.ar    
  12 C12            3.5946    -6.1415    -0.3709 C.ar    
  13 C13            3.5394    -4.7423    -0.4661 C.ar    
  14 N14            2.3672    -4.1470    -0.3508 N.ar    
  15 N15            2.4027    -8.2200    -0.0503 N.am    
  16 C16            3.5520    -8.9132    -0.1598 C.2     
  17 C17            4.8193    -8.2129    -0.3892 C.2     
  18 C18            4.8194    -6.8346    -0.4924 C.2     
  19 C19            1.1454    -8.9361     0.1788 C.3     
  20 O20            3.5385   -10.1276    -0.0673 O.2     
  21 C21            6.0797    -8.9705    -0.5089 C.2     
  22 C22            1.0815     2.1323     0.6962 C.3     
  23 C23            0.5079    -9.2906    -1.1661 C.3     
  24 C24            2.2268     2.3085    -0.3035 C.3     
  25 N25            3.3157     3.0661     0.3263 N.3     
  26 C26            2.8709     4.4099     0.7171 C.3     
  27 C27            1.7448     4.2964     1.7472 C.3     
  28 C28            0.5805     3.5098     1.1389 C.3     
  29 N29           -0.7528   -10.0087    -0.9363 N.3     
  30 C30           -1.5099   -10.1577    -2.1877 C.3     
  31 C31            4.4879     3.1355    -0.5564 C.3     
  32 C32           -2.7841   -10.9612    -1.9144 C.3     
  33 O33           -3.5452   -10.3065    -0.8958 O.3     
  34 C34           -2.8384   -10.1453     0.3370 C.3     
  35 C35           -1.5648    -9.3336     0.0865 C.3     
  36 N36            6.1939   -10.2666    -0.4288 N.2     
  37 C37            7.4011   -10.7680    -0.5601 C.2     
  38 C38            8.3815    -9.8822    -0.7626 C.2     
  39 S39            7.6712    -8.2695    -0.7908 S.3     
  40 S40           10.0892   -10.2622    -0.9723 S.o2    
  41 C41           10.2861   -10.4889    -2.7613 C.3     
  42 C42           11.7448   -10.8274    -3.0750 C.3     
  43 N43           11.9043   -11.0110    -4.5237 N.3     
  44 C44           11.6757    -9.7504    -5.2424 C.3     
  45 C45           13.2267   -11.5659    -4.8417 C.3     
  46 O46           10.7648    -9.0888    -0.5411 O.2     
  47 O47           10.2595   -11.4977    -0.2914 O.2     
  48 H48           -0.7487     1.8762    -0.3492 H       
  49 H49           -1.8540    -0.1677    -1.0144 H       
  50 H50           -1.8217    -2.6279    -1.0506 H       
  51 H51            1.8993    -2.6102     1.0558 H       
  52 H52            1.8708    -0.1498     1.0857 H       
  53 H53           -0.7717    -4.6704     0.0505 H       
  54 H54            4.4366    -4.1652    -0.6344 H       
  55 H55            5.7405    -6.2966    -0.6616 H       
  56 H56            1.3445    -9.8499     0.7387 H       
  57 H57            0.4648    -8.3025     0.7477 H       
  58 H58            1.4382     1.5779     1.5642 H       
  59 H59            0.3088    -8.3769    -1.7260 H       
  60 H60            1.1885    -9.9242    -1.7349 H       
  61 H61            2.5953     1.3295    -0.6098 H       
  62 H62            1.8657     2.8503    -1.1777 H       
  63 H63            3.7072     4.9571     1.1520 H       
  64 H64            2.5068     4.9418    -0.1619 H       
  65 H65            2.1122     3.7767     2.6321 H       
  66 H66            1.4043     5.2938     2.0254 H       
  67 H67            0.1877     4.0489     0.2768 H       
  68 H68           -0.2062     3.3892     1.8837 H       
  69 H69           -1.7760    -9.1728    -2.5716 H       
  70 H70           -0.8992   -10.6826    -2.9223 H       
  71 H71            4.2122     3.6291    -1.4883 H       
  72 H72            5.2793     3.7019    -0.0656 H       
  73 H73            4.8419     2.1270    -0.7703 H       
  74 H74           -3.3767   -11.0253    -2.8270 H       
  75 H75           -2.5175   -11.9643    -1.5815 H       
  76 H76           -3.4703    -9.6195     1.0528 H       
  77 H77           -2.5734   -11.1247     0.7354 H       
  78 H78           -0.9941    -9.2569     1.0120 H       
  79 H79           -1.8317    -8.3356    -0.2610 H       
  80 H80            7.5898   -11.8301    -0.5073 H       
  81 H81            9.6438   -11.3030    -3.0972 H       
  82 H82           10.0074    -9.5699    -3.2769 H       
  83 H83           12.3871   -10.0133    -2.7391 H       
  84 H84           12.0235   -11.7464    -2.5594 H       
  85 H85           12.3938    -9.0036    -4.9037 H       
  86 H86           11.8000    -9.9147    -6.3128 H       
  87 H87           10.6637    -9.3974    -5.0442 H       
  88 H88           13.3423   -12.5329    -4.3520 H       
  89 H89           13.3182   -11.6917    -5.9205 H       
  90 H90           14.0010   -10.8849    -4.4884 H       
@<TRIPOS>BOND
   1    1    2 1
   2    1   22 1
   3    1   48 1
   4    2    3 ar
   5    2    7 ar
   6    3    4 ar
   7    3   49 1
   8    4    5 ar
   9    4   50 1
  10    5    6 ar
  11    5    8 1
  12    6    7 ar
  13    6   51 1
  14    7   52 1
  15    8    9 1
  16    8   53 1
  17    9   10 ar
  18    9   14 ar
  19   10   11 ar
  20   11   12 ar
  21   11   15 1
  22   12   13 ar
  23   12   18 1
  24   13   14 ar
  25   13   54 1
  26   15   16 am
  27   15   19 1
  28   16   17 1
  29   16   20 2
  30   17   18 2
  31   17   21 1
  32   18   55 1
  33   19   23 1
  34   19   56 1
  35   19   57 1
  36   21   36 2
  37   21   39 1
  38   22   24 1
  39   22   28 1
  40   22   58 1
  41   23   29 1
  42   23   59 1
  43   23   60 1
  44   24   25 1
  45   24   61 1
  46   24   62 1
  47   25   26 1
  48   25   31 1
  49   26   27 1
  50   26   63 1
  51   26   64 1
  52   27   28 1
  53   27   65 1
  54   27   66 1
  55   28   67 1
  56   28   68 1
  57   29   30 1
  58   29   35 1
  59   30   32 1
  60   30   69 1
  61   30   70 1
  62   31   71 1
  63   31   72 1
  64   31   73 1
  65   32   33 1
  66   32   74 1
  67   32   75 1
  68   33   34 1
  69   34   35 1
  70   34   76 1
  71   34   77 1
  72   35   78 1
  73   35   79 1
  74   36   37 1
  75   37   38 2
  76   37   80 1
  77   38   39 1
  78   38   40 1
  79   40   41 1
  80   40   46 2
  81   40   47 2
  82   41   42 1
  83   41   81 1
  84   41   82 1
  85   42   43 1
  86   42   83 1
  87   42   84 1
  88   43   44 1
  89   43   45 1
  90   44   85 1
  91   44   86 1
  92   44   87 1
  93   45   88 1
  94   45   89 1
  95   45   90 1

#	End of record

