#	Name: ASD03330404
#	Creating user name:	WinNT
#	Creation time:	15. 06. 2019 20:37

#	Modifying user name:	WinNT
#	Modification time:	15. 06. 2019 20:37

#	Program:	/corina/corina34_cracker 3.40 0067  02.08.2006

@<TRIPOS>MOLECULE
ASD03330404
  70   72    0    0    0
SMALL
NO_CHARGES


@<TRIPOS>ATOM
   1 C1             0.0012     0.8507     0.6668 C.3     
   2 N2            -0.2180    -0.5601     0.3134 N.am    
   3 C3             0.3782    -1.0609    -0.9398 C.3     
   4 C4             1.7779    -0.5019    -1.0149 C.2     
   5 N5             2.2571     0.4624    -0.1895 N.pl3   
   6 C6             1.4980     1.0887     0.8955 C.3     
   7 C7             2.7746    -0.8342    -1.8743 C.2     
   8 N8             3.8476    -0.0688    -1.5721 N.2     
   9 C9             3.5433     0.7138    -0.5624 C.2     
  10 C10            4.4461     1.7040     0.0650 C.ar    
  11 C11            5.6165     2.0956    -0.5855 C.ar    
  12 C12            2.7010    -1.8466    -2.9426 C.2     
  13 O13            1.6737    -2.4742    -3.1159 O.2     
  14 C14            3.6988    -3.0833    -4.7898 C.3     
  15 N15            3.7720    -2.0769    -3.7277 N.am    
  16 C16           -0.9414    -1.3711     1.1105 C.2     
  17 O17           -1.3461    -0.9661     2.1831 O.2     
  18 C18            6.4541     3.0197     0.0046 C.ar    
  19 C19            6.1353     3.5577     1.2386 C.ar    
  20 C20            4.9762     3.1735     1.8888 C.ar    
  21 C21            4.1277     2.2542     1.3068 C.ar    
  22 N22           -1.2163    -2.6310     0.7187 N.am    
  23 C23           -2.0914    -3.4771     1.5338 C.3     
  24 C24            3.9108    -1.2209    -6.4417 C.3     
  25 C25            3.0960    -2.4545    -6.0476 C.3     
  26 C26            3.1251    -3.4714    -7.1903 C.3     
  27 C27            5.0840    -3.5914    -5.0967 C.2     
  28 N28            5.2439    -4.7578    -5.7528 N.am    
  29 C29            1.6492    -2.0422    -5.7685 C.3     
  30 O30            6.0548    -2.9508    -4.7532 O.2     
  31 C31            6.5864    -5.2101    -6.1262 C.3     
  32 C32           -3.4675    -2.8195     1.6557 C.3     
  33 C33           -2.2382    -4.8478     0.8699 C.3     
  34 C34           -1.4825    -3.6479     2.9269 C.3     
  35 H35           -0.3486     1.4879    -0.1453 H       
  36 H36           -0.5482     1.0871     1.5781 H       
  37 H37            0.4129    -2.1503    -0.9260 H       
  38 H38           -0.2061    -0.7170    -1.7933 H       
  39 H39            1.6985     2.1600     0.9089 H       
  40 H40            1.7951     0.6500     1.8481 H       
  41 H41            5.8666     1.6761    -1.5488 H       
  42 H42            3.0719    -3.9126    -4.4620 H       
  43 H43            4.5913    -1.5763    -3.5895 H       
  44 H44            7.3606     3.3235    -0.4978 H       
  45 H45            6.7944     4.2805     1.6966 H       
  46 H46            4.7329     3.5971     2.8520 H       
  47 H47            3.2231     1.9550     1.8153 H       
  48 H48           -0.8347    -2.9775    -0.1030 H       
  49 H49            4.9414    -1.5146    -6.6406 H       
  50 H50            3.4813    -0.7729    -7.3378 H       
  51 H51            3.8900    -0.4964    -5.6276 H       
  52 H52            4.1566    -3.7568    -7.3965 H       
  53 H53            2.5538    -4.3548    -6.9052 H       
  54 H54            2.6856    -3.0271    -8.0834 H       
  55 H55            4.4702    -5.2978    -5.9777 H       
  56 H56            1.2198    -1.5943    -6.6645 H       
  57 H57            1.0688    -2.9210    -5.4876 H       
  58 H58            1.6285    -1.3178    -4.9543 H       
  59 H59            7.0485    -4.4730    -6.7829 H       
  60 H60            7.1930    -5.3277    -5.2283 H       
  61 H61            6.5165    -6.1660    -6.6452 H       
  62 H62           -3.9013    -2.6979     0.6632 H       
  63 H63           -4.1186    -3.4491     2.2622 H       
  64 H64           -3.3629    -1.8431     2.1287 H       
  65 H65           -1.2579    -5.3163     0.7830 H       
  66 H66           -2.8893    -5.4774     1.4763 H       
  67 H67           -2.6720    -4.7261    -0.1226 H       
  68 H68           -1.3779    -2.6714     3.3999 H       
  69 H69           -2.1336    -4.2775     3.5334 H       
  70 H70           -0.5021    -4.1164     2.8400 H       
@<TRIPOS>BOND
   1    1    2 1
   2    1    6 1
   3    1   35 1
   4    1   36 1
   5    2    3 1
   6    2   16 am
   7    3    4 1
   8    3   37 1
   9    3   38 1
  10    4    5 1
  11    4    7 2
  12    5    6 1
  13    5    9 1
  14    6   39 1
  15    6   40 1
  16    7    8 1
  17    7   12 1
  18    8    9 2
  19    9   10 1
  20   10   11 ar
  21   10   21 ar
  22   11   18 ar
  23   11   41 1
  24   12   13 2
  25   12   15 am
  26   14   15 1
  27   14   27 1
  28   14   25 1
  29   14   42 1
  30   15   43 1
  31   16   17 2
  32   16   22 am
  33   18   19 ar
  34   18   44 1
  35   19   20 ar
  36   19   45 1
  37   20   21 ar
  38   20   46 1
  39   21   47 1
  40   22   23 1
  41   22   48 1
  42   23   32 1
  43   23   33 1
  44   23   34 1
  45   24   25 1
  46   24   49 1
  47   24   50 1
  48   24   51 1
  49   25   29 1
  50   25   26 1
  51   26   52 1
  52   26   53 1
  53   26   54 1
  54   27   28 am
  55   27   30 2
  56   28   31 1
  57   28   55 1
  58   29   56 1
  59   29   57 1
  60   29   58 1
  61   31   59 1
  62   31   60 1
  63   31   61 1
  64   32   62 1
  65   32   63 1
  66   32   64 1
  67   33   65 1
  68   33   66 1
  69   33   67 1
  70   34   68 1
  71   34   69 1
  72   34   70 1

#	End of record

