#	Name: ASD01028176
#	Creating user name:	WinNT
#	Creation time:	15. 06. 2019 18:56

#	Modifying user name:	WinNT
#	Modification time:	15. 06. 2019 18:56

#	Program:	/corina/corina34_cracker 3.40 0067  02.08.2006

@<TRIPOS>MOLECULE
ASD01028176
  76   80    0    0    0
SMALL
NO_CHARGES


@<TRIPOS>ATOM
   1 C1            -1.3076     0.6418    -3.0988 C.ar    
   2 C2            -0.8853    -0.5390    -2.4636 C.ar    
   3 C3             0.3555    -1.0847    -2.8120 C.ar    
   4 C4             1.1138    -0.4349    -3.7698 C.ar    
   5 C5             0.6305     0.7238    -4.3509 C.ar    
   6 N6            -0.5414     1.2225    -4.0092 N.ar    
   7 N7            -2.5330     1.1969    -2.7752 N.pl3   
   8 N8            -5.8172     4.3349    -4.7088 N.pl3   
   9 N9            -5.5928     5.6339    -5.1805 N.2     
  10 C10           -4.3362     5.9420    -5.0420 C.2     
  11 C11           -3.6606     4.8407    -4.4620 C.ar    
  12 C12           -2.3279     4.6120    -4.0936 C.ar    
  13 C13           -1.9697     3.4182    -3.5435 C.ar    
  14 C14           -2.9196     2.4151    -3.3408 C.ar    
  15 C15           -4.2402     2.6189    -3.6964 C.ar    
  16 C16           -4.6224     3.8324    -4.2597 C.ar    
  17 C17           -1.7334    -1.1901    -1.4490 C.2     
  18 O18           -2.7651    -0.6580    -1.0865 O.2     
  19 N19           -1.3654    -2.3752    -0.9229 N.am    
  20 C20           -2.2186    -3.0427    -0.0383 C.ar    
  21 C21           -2.2971    -4.4294    -0.0600 C.ar    
  22 C22           -3.1405    -5.0854     0.8147 C.ar    
  23 C23           -3.9065    -4.3633     1.7117 C.ar    
  24 C24           -3.8310    -2.9829     1.7356 C.ar    
  25 C25           -2.9848    -2.3209     0.8675 C.ar    
  26 C26           -3.2268    -6.5897     0.7916 C.3     
  27 C27           -4.1792    -7.0289    -0.3225 C.3     
  28 C28           -4.2882    -8.5550    -0.3281 C.3     
  29 N29           -5.5450    -9.0666    -3.8716 N.3     
  30 C30           -4.6410    -8.6265    -2.8013 C.3     
  31 C31           -5.2406    -8.9941    -1.4421 C.3     
  32 C32           -5.4440   -10.5102    -1.3727 C.3     
  33 C33           -6.3498   -10.9490    -2.5266 C.3     
  34 C34           -5.7181   -10.5247    -3.8543 C.3     
  35 C35           -4.8259    -5.0825     2.6649 C.3     
  36 C36           -5.6914    -4.0619     3.4066 C.3     
  37 C37           -5.7255    -6.0402     1.8809 C.3     
  38 C38           -3.9942    -5.8757     3.6749 C.3     
  39 H39            0.7124    -1.9904    -2.3444 H       
  40 H40            2.0761    -0.8293    -4.0613 H       
  41 H41            1.2241     1.2294    -5.0983 H       
  42 H42           -3.1237     0.7406    -2.1557 H       
  43 H43           -6.6697     3.8724    -4.6976 H       
  44 H44           -3.8835     6.8814    -5.3231 H       
  45 H45           -1.5853     5.3812    -4.2465 H       
  46 H46           -0.9415     3.2461    -3.2614 H       
  47 H47           -4.9713     1.8399    -3.5380 H       
  48 H48           -0.5089    -2.7651    -1.1578 H       
  49 H49           -1.6995    -4.9938    -0.7605 H       
  50 H50           -4.4308    -2.4219     2.4370 H       
  51 H51           -2.9226    -1.2429     0.8899 H       
  52 H52           -2.2368    -7.0076     0.6090 H       
  53 H53           -3.6007    -6.9470     1.7511 H       
  54 H54           -5.1641    -6.5948    -0.1505 H       
  55 H55           -3.7950    -6.6885    -1.2841 H       
  56 H56           -3.3033    -8.9890    -0.5000 H       
  57 H57           -4.6724    -8.8953     0.6335 H       
  58 H58           -6.4353    -8.5960    -3.8093 H       
  59 H59           -3.6749    -9.1177    -2.9169 H       
  60 H60           -4.5082    -7.5461    -2.8594 H       
  61 H61           -6.2001    -8.4917    -1.3197 H       
  62 H62           -4.4795   -11.0112    -1.4558 H       
  63 H63           -5.9109   -10.7719    -0.4232 H       
  64 H64           -6.4637   -12.0329    -2.5078 H       
  65 H65           -7.3270   -10.4779    -2.4215 H       
  66 H66           -6.3675   -10.8231    -4.6773 H       
  67 H67           -4.7469   -11.0071    -3.9650 H       
  68 H68           -6.2839    -3.4968     2.6871 H       
  69 H69           -6.3563    -4.5821     4.0960 H       
  70 H70           -5.0505    -3.3796     3.9651 H       
  71 H71           -5.1222    -6.8476     1.4660 H       
  72 H72           -6.4809    -6.4566     2.5473 H       
  73 H73           -6.2142    -5.4986     1.0711 H       
  74 H74           -3.3132    -5.2014     4.1941 H       
  75 H75           -4.6571    -6.3506     4.3982 H       
  76 H76           -3.4198    -6.6403     3.1518 H       
@<TRIPOS>BOND
   1    1    2 ar
   2    1    6 ar
   3    1    7 1
   4    2    3 ar
   5    2   17 1
   6    3    4 ar
   7    3   39 1
   8    4    5 ar
   9    4   40 1
  10    5    6 ar
  11    5   41 1
  12    7   14 1
  13    7   42 1
  14    8    9 1
  15    8   16 1
  16    8   43 1
  17    9   10 2
  18   10   11 1
  19   10   44 1
  20   11   12 ar
  21   11   16 ar
  22   12   13 ar
  23   12   45 1
  24   13   14 ar
  25   13   46 1
  26   14   15 ar
  27   15   16 ar
  28   15   47 1
  29   17   18 2
  30   17   19 am
  31   19   20 1
  32   19   48 1
  33   20   21 ar
  34   20   25 ar
  35   21   22 ar
  36   21   49 1
  37   22   23 ar
  38   22   26 1
  39   23   24 ar
  40   23   35 1
  41   24   25 ar
  42   24   50 1
  43   25   51 1
  44   26   27 1
  45   26   52 1
  46   26   53 1
  47   27   28 1
  48   27   54 1
  49   27   55 1
  50   28   31 1
  51   28   56 1
  52   28   57 1
  53   29   30 1
  54   29   34 1
  55   29   58 1
  56   30   31 1
  57   30   59 1
  58   30   60 1
  59   31   32 1
  60   31   61 1
  61   32   33 1
  62   32   62 1
  63   32   63 1
  64   33   34 1
  65   33   64 1
  66   33   65 1
  67   34   66 1
  68   34   67 1
  69   35   36 1
  70   35   38 1
  71   35   37 1
  72   36   68 1
  73   36   69 1
  74   36   70 1
  75   37   71 1
  76   37   72 1
  77   37   73 1
  78   38   74 1
  79   38   75 1
  80   38   76 1

#	End of record

