#	Name: ASD03331299
#	Creating user name:	WinNT
#	Creation time:	15. 06. 2019 20:38

#	Modifying user name:	WinNT
#	Modification time:	15. 06. 2019 20:38

#	Program:	/corina/corina34_cracker 3.40 0067  02.08.2006

@<TRIPOS>MOLECULE
ASD03331299
  57   60    0    0    0
SMALL
NO_CHARGES


@<TRIPOS>ATOM
   1 C1             0.0881     1.1960     0.9498 C.ar    
   2 C2             0.1028    -0.2673     0.7341 C.2     
   3 N3            -0.8987    -1.1263     1.0545 N.pl3   
   4 C4            -0.4932    -2.3805     0.6979 C.2     
   5 C5             0.7469    -2.2640     0.1647 C.2     
   6 N6             1.0857    -0.9541     0.1947 N.2     
   7 C7             1.5752    -3.3646    -0.3588 C.2     
   8 N8             2.7977    -3.1065    -0.8640 N.am    
   9 C9            -0.8393     1.7653     1.8229 C.ar    
  10 O10            1.1557    -4.5060    -0.3349 O.2     
  11 C11            3.6212    -4.2007    -1.3845 C.3     
  12 C12            3.2395    -4.4786    -2.8398 C.3     
  13 C13            5.0757    -3.8131    -1.3119 C.2     
  14 C14            3.3749    -3.1924    -3.6571 C.3     
  15 C15           -2.2013    -0.8497     1.6667 C.3     
  16 C16           -3.1037    -2.0696     1.4362 C.3     
  17 O17           -2.4056    -3.2649     1.7956 O.3     
  18 C18           -1.3384    -3.6118     0.9005 C.3     
  19 N19            6.0124    -4.7526    -1.0743 N.am    
  20 C20            4.1691    -5.5489    -3.4154 C.3     
  21 C21            1.7928    -4.9726    -2.9021 C.3     
  22 C22           -0.8486     3.1324     2.0205 C.ar    
  23 C23            0.0623     3.9378     1.3516 C.ar    
  24 C24            0.9841     3.3755     0.4836 C.ar    
  25 C25            1.0054     2.0108     0.2850 C.ar    
  26 F26            0.0498     5.2746     1.5472 F       
  27 F27           -1.7457     3.6860     2.8655 F       
  28 O28            5.4034    -2.6558    -1.4673 O.2     
  29 C29            7.4657    -4.7659    -0.8497 C.3     
  30 C30            7.4853    -6.1931    -1.4144 C.3     
  31 C31            6.0299    -6.2149    -0.9190 C.3     
  32 H32            3.1323    -2.1962    -0.8831 H       
  33 H33           -1.5486     1.1385     2.3429 H       
  34 H34            3.4538    -5.0971    -0.7874 H       
  35 H35            4.4056    -2.8405    -3.6127 H       
  36 H36            3.1030    -3.3904    -4.6939 H       
  37 H37            2.7127    -2.4299    -3.2471 H       
  38 H38           -2.0770    -0.6804     2.7363 H       
  39 H39           -2.6466     0.0307     1.2032 H       
  40 H40           -4.0014    -1.9768     2.0474 H       
  41 H41           -3.3862    -2.1175     0.3846 H       
  42 H42           -1.7488    -3.9395    -0.0546 H       
  43 H43           -0.7341    -4.4073     1.3365 H       
  44 H44            4.0036    -6.4921    -2.8946 H       
  45 H45            3.9602    -5.6787    -4.4773 H       
  46 H46            5.2057    -5.2385    -3.2843 H       
  47 H47            1.1305    -4.2101    -2.4921 H       
  48 H48            1.5208    -5.1706    -3.9389 H       
  49 H49            1.6963    -5.8889    -2.3198 H       
  50 H50            1.6905     4.0067    -0.0351 H       
  51 H51            1.7248     1.5742    -0.3920 H       
  52 H52            8.0068    -4.0478    -1.4659 H       
  53 H53            7.7428    -4.7118     0.2031 H       
  54 H54            7.5929    -6.2436    -2.4979 H       
  55 H55            8.1471    -6.8757    -0.8812 H       
  56 H56            5.9281    -6.5464     0.1144 H       
  57 H57            5.3485    -6.7296    -1.5964 H       
@<TRIPOS>BOND
   1    1    2 1
   2    1    9 ar
   3    1   25 ar
   4    2    3 1
   5    2    6 2
   6    3    4 1
   7    3   15 1
   8    4    5 2
   9    4   18 1
  10    5    6 1
  11    5    7 1
  12    7    8 am
  13    7   10 2
  14    8   11 1
  15    8   32 1
  16    9   22 ar
  17    9   33 1
  18   11   12 1
  19   11   13 1
  20   11   34 1
  21   12   14 1
  22   12   20 1
  23   12   21 1
  24   13   19 am
  25   13   28 2
  26   14   35 1
  27   14   36 1
  28   14   37 1
  29   15   16 1
  30   15   38 1
  31   15   39 1
  32   16   17 1
  33   16   40 1
  34   16   41 1
  35   17   18 1
  36   18   42 1
  37   18   43 1
  38   19   29 1
  39   19   31 1
  40   20   44 1
  41   20   45 1
  42   20   46 1
  43   21   47 1
  44   21   48 1
  45   21   49 1
  46   22   23 ar
  47   22   27 1
  48   23   24 ar
  49   23   26 1
  50   24   25 ar
  51   24   50 1
  52   25   51 1
  53   29   30 1
  54   29   52 1
  55   29   53 1
  56   30   31 1
  57   30   54 1
  58   30   55 1
  59   31   56 1
  60   31   57 1

#	End of record

