#	Name: ASD01918382
#	Creating user name:	WinNT
#	Creation time:	15. 06. 2019 20:11

#	Modifying user name:	WinNT
#	Modification time:	15. 06. 2019 20:11

#	Program:	/corina/corina34_cracker 3.40 0067  02.08.2006

@<TRIPOS>MOLECULE
ASD01918382
  48   50    0    0    0
SMALL
NO_CHARGES


@<TRIPOS>ATOM
   1 Cl1            0.0000     0.0000     0.0000 Cl      
   2 H2             0.0000     1.3700     0.0000 H       
   3 C3            10.8993    21.7406    13.1126 C.3     
   4 C4            10.9201    20.2107    13.1042 C.3     
   5 C5            11.6362    19.7173    11.8454 C.3     
   6 N6            13.0467    20.1248    11.8930 N.3     
   7 C7            13.2178    21.4902    11.3788 C.3     
   8 C8            14.1391    22.4291    12.1603 C.3     
   9 C9            14.5883    21.8647    10.8110 C.3     
  10 C10           11.5496    18.2145    11.7747 C.2     
  11 N11           10.7804    17.5164    10.9772 N.2     
  12 C12           11.0392    16.2206    11.2653 C.2     
  13 N13           11.9419    16.2085    12.2117 N.2     
  14 O14           12.2479    17.3435    12.5101 O.3     
  15 C15           10.4158    15.0351    10.6276 C.ar    
  16 C16           10.7872    13.7569    11.0417 C.ar    
  17 C17           10.2025    12.6576    10.4441 C.ar    
  18 C18            9.2513    12.8742     9.4369 C.ar    
  19 C19            8.9312    14.1878     9.0763 C.ar    
  20 N20            9.5079    15.2062     9.6743 N.ar    
  21 C21            8.6170    11.7673     8.7864 C.1     
  22 C22            8.0970    10.8598     8.2532 C.1     
  23 C23            7.4627     9.7529     7.6027 C.ar    
  24 C24            7.7837     8.4440     7.9721 C.ar    
  25 C25            7.1691     7.3818     7.3422 C.ar    
  26 C26            6.2362     7.6087     6.3464 C.ar    
  27 C27            5.9122     8.9040     5.9735 C.ar    
  28 F28            5.0000     9.1172     5.0000 F       
  29 C29            6.5157     9.9769     6.5998 C.ar    
  30 H30           11.9219    22.1179    13.1049 H       
  31 H31           10.3721    22.1016    12.2296 H       
  32 H32           10.3891    22.0921    14.0094 H       
  33 H33           11.4472    19.8497    13.9873 H       
  34 H34            9.8975    19.8334    13.1119 H       
  35 H35           11.1624    20.1504    10.9645 H       
  36 H36           13.4158    20.0418    12.8284 H       
  37 H37           12.3396    21.9270    10.9033 H       
  38 H38           13.8670    23.4839    12.1991 H       
  39 H39           14.6182    22.0337    13.0559 H       
  40 H40           15.3630    21.0980    10.8189 H       
  41 H41           14.6118    22.5482     9.9622 H       
  42 H42           11.5240    13.6277    11.8207 H       
  43 H43           10.4715    11.6558    10.7449 H       
  44 H44            8.2000    14.3666     8.3019 H       
  45 H45            8.5120     8.2643     8.7490 H       
  46 H46            7.4172     6.3700     7.6271 H       
  47 H47            5.7583     6.7730     5.8569 H       
  48 H48            6.2595    10.9860     6.3125 H       
@<TRIPOS>BOND
   1    1    2 1
   2    3    4 1
   3    3   30 1
   4    3   31 1
   5    3   32 1
   6    4    5 1
   7    4   33 1
   8    4   34 1
   9    5    6 1
  10    5   10 1
  11    5   35 1
  12    6    7 1
  13    6   36 1
  14    7    9 1
  15    7    8 1
  16    7   37 1
  17    8    9 1
  18    8   38 1
  19    8   39 1
  20    9   40 1
  21    9   41 1
  22   10   14 1
  23   10   11 2
  24   11   12 1
  25   12   13 2
  26   12   15 1
  27   13   14 1
  28   15   20 ar
  29   15   16 ar
  30   16   17 ar
  31   16   42 1
  32   17   18 ar
  33   17   43 1
  34   18   19 ar
  35   18   21 1
  36   19   20 ar
  37   19   44 1
  38   21   22 3
  39   22   23 1
  40   23   29 ar
  41   23   24 ar
  42   24   25 ar
  43   24   45 1
  44   25   26 ar
  45   25   46 1
  46   26   27 ar
  47   26   47 1
  48   27   28 1
  49   27   29 ar
  50   29   48 1

#	End of record

