#	Name: ASD01915329
#	Creating user name:	WinNT
#	Creation time:	15. 06. 2019 20:05

#	Modifying user name:	WinNT
#	Modification time:	15. 06. 2019 20:05

#	Program:	/corina/corina34_cracker 3.40 0067  02.08.2006

@<TRIPOS>MOLECULE
ASD01915329
  35   37    0    0    0
SMALL
NO_CHARGES


@<TRIPOS>ATOM
   1 C1            -0.0045     1.3249    -0.0199 C.2     
   2 N2             0.0095    -0.0259    -0.0292 N.pl3   
   3 C3            -1.3056    -0.4567    -0.0127 C.2     
   4 C4            -2.0824     0.6208     0.0061 C.2     
   5 O5            -1.2940     1.7192     0.0060 O.3     
   6 N6             1.2474     1.7375    -0.0353 N.2     
   7 C7             2.0666     0.6884    -0.0542 C.2     
   8 N8             1.3556    -0.4113    -0.0513 N.2     
   9 C9            -3.5893     0.6191     0.0283 C.3     
  10 C10           -1.7722    -1.8896    -0.0159 C.3     
  11 C11           -4.0805     1.2194     1.3471 C.3     
  12 O12           -4.0906     1.4113    -1.0805 O.3     
  13 C13           -5.2813     1.0541    -1.5978 C.2     
  14 N14           -5.8036     1.7478    -2.6286 N.am    
  15 O15           -5.8850     0.1064    -1.1354 O.2     
  16 C16           -6.9847     1.3103    -3.2399 C.ar    
  17 C17           -7.8990     2.2345    -3.7277 C.ar    
  18 C18           -9.0631     1.8003    -4.3308 C.ar    
  19 C19           -9.3188     0.4455    -4.4490 C.ar    
  20 C20           -8.4093    -0.4776    -3.9636 C.ar    
  21 C21           -7.2412    -0.0487    -3.3645 C.ar    
  22 Cl22         -10.7833    -0.0970    -5.2070 Cl      
  23 H23            3.1454     0.7365    -0.0695 H       
  24 H24           -3.9528    -0.4044    -0.0628 H       
  25 H25           -0.9077    -2.5533    -0.0330 H       
  26 H26           -2.3604    -2.0822     0.8814 H       
  27 H27           -2.3861    -2.0699    -0.8984 H       
  28 H28           -5.1704     1.2182     1.3632 H       
  29 H29           -3.7042     0.6247     2.1795 H       
  30 H30           -3.7169     2.2429     1.4382 H       
  31 H31           -5.3612     2.5502    -2.9469 H       
  32 H32           -7.7001     3.2920    -3.6354 H       
  33 H33           -9.7747     2.5188    -4.7101 H       
  34 H34           -8.6113    -1.5345    -4.0568 H       
  35 H35           -6.5315    -0.7695    -2.9862 H       
@<TRIPOS>BOND
   1    1    2 1
   2    1    6 2
   3    1    5 1
   4    2    3 1
   5    2    8 1
   6    3    4 2
   7    3   10 1
   8    4    5 1
   9    4    9 1
  10    6    7 1
  11    7    8 2
  12    7   23 1
  13    9   11 1
  14    9   12 1
  15    9   24 1
  16   10   25 1
  17   10   26 1
  18   10   27 1
  19   11   28 1
  20   11   29 1
  21   11   30 1
  22   12   13 1
  23   13   14 am
  24   13   15 2
  25   14   16 1
  26   14   31 1
  27   16   17 ar
  28   16   21 ar
  29   17   18 ar
  30   17   32 1
  31   18   19 ar
  32   18   33 1
  33   19   20 ar
  34   19   22 1
  35   20   21 ar
  36   20   34 1
  37   21   35 1

#	End of record

