#	Name: ASD01940445
#	Creating user name:	WinNT
#	Creation time:	15. 06. 2019 20:12

#	Modifying user name:	WinNT
#	Modification time:	15. 06. 2019 20:12

#	Program:	/corina/corina34_cracker 3.40 0067  02.08.2006

@<TRIPOS>MOLECULE
ASD01940445
  34   33    0    0    0
SMALL
NO_CHARGES


@<TRIPOS>ATOM
   1 C1            -0.0187     1.5258     0.0104 C.3     
   2 C2             0.0021    -0.0041     0.0020 C.3     
   3 C3             0.8475    -0.5091     1.1729 C.3     
   4 O4             1.3220     2.0204     0.0003 O.3     
   5 O5             0.5662    -0.4660    -1.2270 O.3     
   6 Si6           -0.0116    -1.9090    -1.7211 Si      
   7 C7             0.3543    -3.2000    -0.4287 C.3     
   8 C8            -1.8534    -1.7872    -1.9731 C.3     
   9 C9             0.8044    -2.3881    -3.3259 C.3     
  10 C10            2.3171    -2.4882    -3.1189 C.3     
  11 C11            0.2625    -3.7417    -3.7894 C.3     
  12 C12            0.5040    -1.3279    -4.3873 C.3     
  13 H13           -0.5459     1.8868    -0.8726 H       
  14 H14           -0.5289     1.8773     0.9072 H       
  15 H15           -1.0158    -0.3818     0.0993 H       
  16 H16            0.4173    -0.1567     2.1104 H       
  17 H17            0.8623    -1.5990     1.1669 H       
  18 H18            1.8654    -0.1314     1.0757 H       
  19 H19            1.3852     2.9853     0.0049 H       
  20 H20           -0.1232    -2.9197     0.5102 H       
  21 H21           -0.0318    -4.1643    -0.7589 H       
  22 H22            1.4319    -3.2713    -0.2812 H       
  23 H23           -2.0675    -1.0318    -2.7293 H       
  24 H24           -2.2396    -2.7515    -2.3034 H       
  25 H25           -2.3309    -1.5068    -1.0342 H       
  26 H26            2.5311    -3.2435    -2.3627 H       
  27 H27            2.7945    -2.7685    -4.0578 H       
  28 H28            2.7032    -1.5239    -2.7887 H       
  29 H29           -0.8152    -3.6704    -3.9369 H       
  30 H30            0.7399    -4.0221    -4.7283 H       
  31 H31            0.4765    -4.4971    -3.0333 H       
  32 H32            0.8901    -0.3636    -4.0570 H       
  33 H33            0.9814    -1.6082    -5.3262 H       
  34 H34           -0.5736    -1.2566    -4.5347 H       
@<TRIPOS>BOND
   1    1    2 1
   2    1    4 1
   3    1   13 1
   4    1   14 1
   5    2    3 1
   6    2    5 1
   7    2   15 1
   8    3   16 1
   9    3   17 1
  10    3   18 1
  11    4   19 1
  12    5    6 1
  13    6    7 1
  14    6    8 1
  15    6    9 1
  16    7   20 1
  17    7   21 1
  18    7   22 1
  19    8   23 1
  20    8   24 1
  21    8   25 1
  22    9   10 1
  23    9   12 1
  24    9   11 1
  25   10   26 1
  26   10   27 1
  27   10   28 1
  28   11   29 1
  29   11   30 1
  30   11   31 1
  31   12   32 1
  32   12   33 1
  33   12   34 1

#	End of record

