#	Name: ASD00510003
#	Creating user name:	WinNT
#	Creation time:	15. 06. 2019 18:36

#	Modifying user name:	WinNT
#	Modification time:	15. 06. 2019 18:36

#	Program:	/corina/corina34_cracker 3.40 0067  02.08.2006

@<TRIPOS>MOLECULE
ASD00510003
  36   39    0    0    0
SMALL
NO_CHARGES


@<TRIPOS>ATOM
   1 C1             0.0244     1.3198    -0.5662 C.ar    
   2 N2             0.0417    -0.0024    -0.5648 N.ar    
   3 C3             1.1485    -0.6973    -0.3994 C.ar    
   4 C4             2.3595    -0.0340    -0.2171 C.ar    
   5 C5             2.3740     1.3816    -0.2138 C.ar    
   6 C6             1.1648     2.0565    -0.3945 C.ar    
   7 C7             3.6355    -0.7285    -0.0257 C.ar    
   8 C8             4.8069     0.0459     0.1509 C.ar    
   9 N9             4.7592     1.3873     0.1451 N.ar    
  10 C10            3.6505     2.0708    -0.0214 C.ar    
  11 C11            3.7064    -2.1234    -0.0156 C.ar    
  12 C12            4.9043    -2.7472     0.1646 C.ar    
  13 C13            6.0764    -1.9976     0.3419 C.ar    
  14 C14            6.0326    -0.6115     0.3348 C.ar    
  15 C15            3.6922     3.5504    -0.0140 C.ar    
  16 C16            2.7300     4.2745     0.6908 C.ar    
  17 C17            2.7740     5.6531     0.6945 C.ar    
  18 C18            3.7703     6.3186     0.0001 C.ar    
  19 C19            4.7278     5.6051    -0.7012 C.ar    
  20 C20            4.6971     4.2261    -0.7072 C.ar    
  21 Cl21           3.8188     8.0539     0.0082 Cl      
  22 C22            7.3679    -2.6901     0.5371 C.2     
  23 O23            8.3864    -2.0447     0.6911 O.2     
  24 N24            7.4161    -4.0370     0.5443 N.am    
  25 H25           -0.9151     1.8325    -0.7113 H       
  26 H26            1.1169    -1.7768    -0.4047 H       
  27 H27            1.1305     3.1359    -0.3991 H       
  28 H28            2.8091    -2.7091    -0.1506 H       
  29 H29            4.9515    -3.8261     0.1713 H       
  30 H30            6.9388    -0.0400     0.4715 H       
  31 H31            1.9521     3.7565     1.2322 H       
  32 H32            2.0298     6.2146     1.2398 H       
  33 H33            5.5026     6.1292    -1.2411 H       
  34 H34            5.4445     3.6706    -1.2542 H       
  35 H35            6.6033    -4.5520     0.4214 H       
  36 H36            8.2634    -4.4913     0.6724 H       
@<TRIPOS>BOND
   1    1    2 ar
   2    1    6 ar
   3    1   25 1
   4    2    3 ar
   5    3    4 ar
   6    3   26 1
   7    4    5 ar
   8    4    7 ar
   9    5    6 ar
  10    5   10 ar
  11    6   27 1
  12    7    8 ar
  13    7   11 ar
  14    8    9 ar
  15    8   14 ar
  16    9   10 ar
  17   10   15 1
  18   11   12 ar
  19   11   28 1
  20   12   13 ar
  21   12   29 1
  22   13   14 ar
  23   13   22 1
  24   14   30 1
  25   15   16 ar
  26   15   20 ar
  27   16   17 ar
  28   16   31 1
  29   17   18 ar
  30   17   32 1
  31   18   19 ar
  32   18   21 1
  33   19   20 ar
  34   19   33 1
  35   20   34 1
  36   22   23 2
  37   22   24 am
  38   24   35 1
  39   24   36 1

#	End of record

