#	Name: ASD01880582
#	Creating user name:	WinNT
#	Creation time:	15. 06. 2019 19:41

#	Modifying user name:	WinNT
#	Modification time:	15. 06. 2019 19:41

#	Program:	/corina/corina34_cracker 3.40 0067  02.08.2006

@<TRIPOS>MOLECULE
ASD01880582
  51   54    0    0    0
SMALL
NO_CHARGES


@<TRIPOS>ATOM
   1 N1             0.0007     1.3139    -0.2012 N.ar    
   2 C2             0.0232    -0.0041    -0.2230 C.ar    
   3 N3             1.1373    -0.6836    -0.0322 N.ar    
   4 C4             2.2864    -0.0618     0.1908 C.ar    
   5 C5             2.3107     1.3188     0.2225 C.ar    
   6 C6             1.1140     2.0080     0.0166 C.ar    
   7 C7             3.5969     2.0629     0.4735 C.3     
   8 O8             4.6354     1.1297     0.7781 O.3     
   9 C9             5.8671     1.6398     1.0319 C.ar    
  10 C10            6.9237     0.7867     1.3354 C.ar    
  11 C11            8.1693     1.3040     1.5915 C.ar    
  12 C12            8.3843     2.6856     1.5494 C.ar    
  13 C13            7.3197     3.5379     1.2437 C.ar    
  14 C14            6.0733     3.0133     0.9828 C.ar    
  15 C15            9.4956     0.6772     1.9429 C.3     
  16 N16           10.4460     1.7853     2.0906 N.am    
  17 C17            9.8007     2.9421     1.8628 C.2     
  18 O18           10.3132     4.0437     1.9085 O.2     
  19 Br19          -1.5863    -0.9462    -0.5360 Br      
  20 N20            1.0868     3.3929     0.0385 N.3     
  21 C21           -0.1586     3.8860     0.6443 C.3     
  22 C22           -0.1208     5.4154     0.7027 C.3     
  23 O23            0.0821     5.9329    -0.6150 O.3     
  24 C24            1.2864     5.4736    -1.2347 C.3     
  25 C25            1.2629     3.9447    -1.3127 C.3     
  26 C26           14.1678     1.3740     1.5033 C.3     
  27 C27           12.6861     1.5125     1.1478 C.3     
  28 C28           11.8647     1.6527     2.4310 C.3     
  29 H29            3.1929    -0.6280     0.3462 H       
  30 H30            3.8680     2.6304    -0.4168 H       
  31 H31            3.4640     2.7453     1.3129 H       
  32 H32            6.7640    -0.2808     1.3698 H       
  33 H33            7.4749     4.6061     1.2090 H       
  34 H34            5.2512     3.6725     0.7462 H       
  35 H35            9.4133     0.1267     2.8800 H       
  36 H36            9.8186     0.0107     1.1432 H       
  37 H37           -1.0083     3.5657     0.0415 H       
  38 H38           -0.2559     3.4855     1.6534 H       
  39 H39           -1.0656     5.7880     1.0985 H       
  40 H40            0.6966     5.7349     1.3491 H       
  41 H41            1.3594     5.8882    -2.2401 H       
  42 H42            2.1448     5.7947    -0.6447 H       
  43 H43            2.2032     3.5872    -1.7322 H       
  44 H44            0.4359     3.6254    -1.9469 H       
  45 H45           14.4947     2.2590     2.0491 H       
  46 H46           14.3112     0.4901     2.1248 H       
  47 H47           14.7529     1.2742     0.5891 H       
  48 H48           12.5427     2.3964     0.5263 H       
  49 H49           12.3591     0.6276     0.6019 H       
  50 H50           12.1917     2.5377     2.9769 H       
  51 H51           12.0081     0.7688     3.0525 H       
@<TRIPOS>BOND
   1    1    2 ar
   2    1    6 ar
   3    2    3 ar
   4    2   19 1
   5    3    4 ar
   6    4    5 ar
   7    4   29 1
   8    5    6 ar
   9    5    7 1
  10    6   20 1
  11    7    8 1
  12    7   30 1
  13    7   31 1
  14    8    9 1
  15    9   10 ar
  16    9   14 ar
  17   10   11 ar
  18   10   32 1
  19   11   12 ar
  20   11   15 1
  21   12   13 ar
  22   12   17 1
  23   13   14 ar
  24   13   33 1
  25   14   34 1
  26   15   16 1
  27   15   35 1
  28   15   36 1
  29   16   17 am
  30   16   28 1
  31   17   18 2
  32   20   21 1
  33   20   25 1
  34   21   22 1
  35   21   37 1
  36   21   38 1
  37   22   23 1
  38   22   39 1
  39   22   40 1
  40   23   24 1
  41   24   25 1
  42   24   41 1
  43   24   42 1
  44   25   43 1
  45   25   44 1
  46   26   27 1
  47   26   45 1
  48   26   46 1
  49   26   47 1
  50   27   28 1
  51   27   48 1
  52   27   49 1
  53   28   50 1
  54   28   51 1

#	End of record

