#	Name: ASD01870702
#	Creating user name:	WinNT
#	Creation time:	15. 06. 2019 19:39

#	Modifying user name:	WinNT
#	Modification time:	15. 06. 2019 19:39

#	Program:	/corina/corina34_cracker 3.40 0067  02.08.2006

@<TRIPOS>MOLECULE
ASD01870702
  50   53    0    0    0
SMALL
NO_CHARGES


@<TRIPOS>ATOM
   1 C1            -0.0366     1.5085    -0.0076 C.3     
   2 C2             0.0046    -0.0217    -0.0085 C.3     
   3 N3             0.9775    -0.4713     0.9987 N.am    
   4 C4             2.3936    -0.1299     0.7894 C.3     
   5 C5             1.3854     2.0451    -0.0086 C.2     
   6 C6             0.5844    -1.1737     2.0797 C.2     
   7 C7             1.5920    -1.7266     3.0078 C.ar    
   8 O8            -0.5993    -1.3522     2.2911 O.2     
   9 C9             1.7429     3.3969    -0.3911 C.2     
  10 C10            2.4558     1.3203     0.3468 C.2     
  11 S11            3.9215     2.2785     0.2278 S.3     
  12 C12            3.0715     3.6530    -0.3086 C.2     
  13 C13            0.7828     4.3702    -0.8171 C.1     
  14 N14            0.0211     5.1423    -1.1550 N.1     
  15 C15            3.7102     4.9755    -0.6465 C.3     
  16 N16            3.7564     5.8161     0.5525 N.pl3   
  17 C17            4.3086     7.0972     0.4864 C.ar    
  18 C18            1.3254    -1.7859     4.3773 C.ar    
  19 C19            2.2689    -2.3032     5.2388 C.ar    
  20 C20            3.4809    -2.7641     4.7478 C.ar    
  21 C21            3.7509    -2.7075     3.3890 C.ar    
  22 C22            2.8123    -2.1970     2.5181 C.ar    
  23 C23            4.8093     7.5778    -0.7177 C.ar    
  24 C24            4.3528     7.8943     1.6217 C.ar    
  25 C25            4.9017     9.1653     1.5519 C.ar    
  26 C26            5.4054     9.6376     0.3482 C.ar    
  27 C27            5.3554     8.8447    -0.7828 C.ar    
  28 O28            4.9462     9.9485     2.6617 O.3     
  29 C29            5.5256    11.2466     2.5167 C.3     
  30 F30            4.4024    -3.2697     5.5966 F       
  31 H31           -0.5591     1.8594    -0.8975 H       
  32 H32           -0.5575     1.8584     0.8837 H       
  33 H33           -0.9824    -0.4138     0.2366 H       
  34 H34            0.3071    -0.3783    -0.9931 H       
  35 H35            2.9459    -0.2564     1.7205 H       
  36 H36            2.8181    -0.7709     0.0167 H       
  37 H37            4.7234     4.8070    -1.0114 H       
  38 H38            3.1245     5.4752    -1.4181 H       
  39 H39            3.4034     5.4828     1.3923 H       
  40 H40            0.3818    -1.4269     4.7608 H       
  41 H41            2.0638    -2.3493     6.2982 H       
  42 H42            4.6967    -3.0675     3.0118 H       
  43 H43            3.0218    -2.1575     1.4593 H       
  44 H44            4.7718     6.9601    -1.6028 H       
  45 H45            3.9601     7.5252     2.5576 H       
  46 H46            5.8327    10.6280     0.2940 H       
  47 H47            5.7444     9.2164    -1.7192 H       
  48 H48            6.5596    11.1481     2.1862 H       
  49 H49            4.9609    11.8163     1.7787 H       
  50 H50            5.4984    11.7657     3.4748 H       
@<TRIPOS>BOND
   1    1    2 1
   2    1    5 1
   3    1   31 1
   4    1   32 1
   5    2    3 1
   6    2   33 1
   7    2   34 1
   8    3    4 1
   9    3    6 am
  10    4   10 1
  11    4   35 1
  12    4   36 1
  13    5   10 2
  14    5    9 1
  15    6    7 1
  16    6    8 2
  17    7   18 ar
  18    7   22 ar
  19    9   12 2
  20    9   13 1
  21   10   11 1
  22   11   12 1
  23   12   15 1
  24   13   14 3
  25   15   16 1
  26   15   37 1
  27   15   38 1
  28   16   17 1
  29   16   39 1
  30   17   24 ar
  31   17   23 ar
  32   18   19 ar
  33   18   40 1
  34   19   20 ar
  35   19   41 1
  36   20   21 ar
  37   20   30 1
  38   21   22 ar
  39   21   42 1
  40   22   43 1
  41   23   27 ar
  42   23   44 1
  43   24   25 ar
  44   24   45 1
  45   25   26 ar
  46   25   28 1
  47   26   27 ar
  48   26   46 1
  49   27   47 1
  50   28   29 1
  51   29   48 1
  52   29   49 1
  53   29   50 1

#	End of record

