#	Name: ASD01917860
#	Creating user name:	WinNT
#	Creation time:	15. 06. 2019 20:10

#	Modifying user name:	WinNT
#	Modification time:	15. 06. 2019 20:10

#	Program:	/corina/corina34_cracker 3.40 0067  02.08.2006

@<TRIPOS>MOLECULE
ASD01917860
  47   51    0    0    0
SMALL
NO_CHARGES


@<TRIPOS>ATOM
   1 C1             0.0812     0.9823    -0.7235 C.2     
   2 C2            -0.0445    -0.3575    -0.6867 C.2     
   3 C3            -1.3612    -1.0575    -0.3873 C.3     
   4 C4            -2.3071    -0.0722     0.3033 C.3     
   5 N5            -2.2974     1.2010    -0.4327 N.am    
   6 C6            -1.0380     1.9651    -0.4668 C.3     
   7 C7            -3.4039     1.6536    -1.0549 C.2     
   8 O8            -4.3963     0.9528    -1.1173 O.2     
   9 S9             1.7496     1.3810    -1.1085 S.3     
  10 C10            2.1374    -0.2820    -1.1828 C.2     
  11 N11            1.0924    -0.9918    -0.9389 N.2     
  12 C12            3.5047    -0.8364    -1.4899 C.3     
  13 O13            3.6374    -1.0223    -2.9006 O.3     
  14 C14            4.8202    -1.5193    -3.3487 C.ar    
  15 C15            5.0177    -1.7250    -4.7065 C.ar    
  16 C16            6.2209    -2.2304    -5.1595 C.ar    
  17 C17            7.2279    -2.5312    -4.2611 C.ar    
  18 C18            7.0334    -2.3275    -2.9074 C.ar    
  19 C19            5.8343    -1.8165    -2.4498 C.ar    
  20 C20           -3.4116     2.9947    -1.6584 C.2     
  21 C21           -4.2989     3.4347    -2.5885 C.2     
  22 C22           -3.9625     4.7730    -2.9059 C.ar    
  23 C23           -2.8389     5.1101    -2.1262 C.ar    
  24 N24           -2.5216     4.0098    -1.3655 N.pl3   
  25 C25           -4.5093     5.7210    -3.7806 C.ar    
  26 C26           -3.9508     6.9626    -3.8711 C.ar    
  27 C27           -2.8422     7.2975    -3.1034 C.ar    
  28 C28           -2.2872     6.3837    -2.2361 C.ar    
  29 H29           -1.8107    -1.4021    -1.3187 H       
  30 H30           -1.1802    -1.9093     0.2682 H       
  31 H31           -3.3174    -0.4812     0.3107 H       
  32 H32           -1.9735     0.0963     1.3273 H       
  33 H33           -0.8821     2.4649     0.4893 H       
  34 H34           -1.0735     2.7019    -1.2693 H       
  35 H35            4.2662    -0.1384    -1.1422 H       
  36 H36            3.6307    -1.7935    -0.9839 H       
  37 H37            4.2313    -1.4905    -5.4086 H       
  38 H38            6.3749    -2.3910    -6.2163 H       
  39 H39            8.1678    -2.9262    -4.6172 H       
  40 H40            7.8213    -2.5639    -2.2076 H       
  41 H41            5.6828    -1.6576    -1.3924 H       
  42 H42           -5.1142     2.8658    -3.0104 H       
  43 H43           -1.7911     3.9544    -0.7296 H       
  44 H44           -5.3705     5.4696    -4.3819 H       
  45 H45           -4.3741     7.6917    -4.5461 H       
  46 H46           -2.4121     8.2846    -3.1874 H       
  47 H47           -1.4257     6.6536    -1.6434 H       
@<TRIPOS>BOND
   1    1    2 2
   2    1    9 1
   3    1    6 1
   4    2    3 1
   5    2   11 1
   6    3    4 1
   7    3   29 1
   8    3   30 1
   9    4    5 1
  10    4   31 1
  11    4   32 1
  12    5    6 1
  13    5    7 am
  14    6   33 1
  15    6   34 1
  16    7    8 2
  17    7   20 1
  18    9   10 1
  19   10   11 2
  20   10   12 1
  21   12   13 1
  22   12   35 1
  23   12   36 1
  24   13   14 1
  25   14   15 ar
  26   14   19 ar
  27   15   16 ar
  28   15   37 1
  29   16   17 ar
  30   16   38 1
  31   17   18 ar
  32   17   39 1
  33   18   19 ar
  34   18   40 1
  35   19   41 1
  36   20   21 2
  37   20   24 1
  38   21   22 1
  39   21   42 1
  40   22   23 ar
  41   22   25 ar
  42   23   24 1
  43   23   28 ar
  44   24   43 1
  45   25   26 ar
  46   25   44 1
  47   26   27 ar
  48   26   45 1
  49   27   28 ar
  50   27   46 1
  51   28   47 1

#	End of record

