#	Name: ASD01885691
#	Creating user name:	WinNT
#	Creation time:	15. 06. 2019 19:50

#	Modifying user name:	WinNT
#	Modification time:	15. 06. 2019 19:50

#	Program:	/corina/corina34_cracker 3.40 0067  02.08.2006

@<TRIPOS>MOLECULE
ASD01885691
  47   50    0    0    0
SMALL
NO_CHARGES


@<TRIPOS>ATOM
   1 C1            -0.0916     1.4168    -0.0187 C.ar    
   2 C2            -1.3495     2.0696     0.0327 C.ar    
   3 C3            -1.3900     3.4869     0.0434 C.ar    
   4 C4            -0.1831     4.1716     0.0024 C.ar    
   5 C5             1.0162     3.4522    -0.0473 C.ar    
   6 N6             1.0323     2.1327    -0.0619 N.ar    
   7 C7            -0.0531     0.0095    -0.0292 C.ar    
   8 C8            -1.2145    -0.6980     0.0151 C.ar    
   9 C9            -2.4478    -0.0521     0.0709 C.ar    
  10 C10           -2.5248     1.3087     0.0715 C.ar    
  11 C11           -2.6789     4.2137     0.0960 C.ar    
  12 C12           -2.8731     5.2272     1.0350 C.ar    
  13 C13           -4.0755     5.9012     1.0801 C.ar    
  14 C14           -3.7012     3.8912    -0.7969 C.ar    
  15 C15            2.3008     4.1912    -0.0975 C.2     
  16 N16            3.4653     3.5153    -0.1571 N.am    
  17 O17            2.3036     5.4061    -0.0848 O.2     
  18 C18           -1.1657    -2.2042     0.0161 C.3     
  19 N19           -1.2828    -2.6975    -1.3583 N.pl3   
  20 C20           -1.1988    -4.0146    -1.7684 C.2     
  21 C21           -1.3655    -4.0051    -3.1257 C.2     
  22 N22           -1.5407    -2.7395    -3.5053 N.2     
  23 C23           -1.4982    -1.9550    -2.4585 C.2     
  24 C24           -5.0900     5.5732     0.1946 C.ar    
  25 C25           -4.9000     4.5711    -0.7438 C.ar    
  26 F26           -6.2663     6.2360     0.2430 F       
  27 C27           -0.9752    -5.1876    -0.9182 C.2     
  28 O28           -0.7163    -5.0286     0.3958 O.3     
  29 O29           -1.0231    -6.3041    -1.3978 O.2     
  30 C30           -0.5053    -6.2343     1.1768 C.3     
  31 H31           -0.1698     5.2515     0.0085 H       
  32 H32            0.8946    -0.5066    -0.0726 H       
  33 H33           -3.3545    -0.6373     0.1139 H       
  34 H34           -3.4869     1.7977     0.1111 H       
  35 H35           -2.0833     5.4832     1.7257 H       
  36 H36           -4.2269     6.6856     1.8068 H       
  37 H37           -3.5540     3.1107    -1.5287 H       
  38 H38            3.4631     2.5453    -0.1672 H       
  39 H39            4.3056     3.9987    -0.1899 H       
  40 H40           -0.2191    -2.5367     0.4421 H       
  41 H41           -1.9898    -2.5940     0.6136 H       
  42 H42           -1.3568    -4.8687    -3.7742 H       
  43 H43           -1.6113    -0.8811    -2.4764 H       
  44 H44           -5.6935     4.3193    -1.4319 H       
  45 H45           -0.3072    -5.9653     2.2143 H       
  46 H46           -1.3966    -6.8598     1.1275 H       
  47 H47            0.3464    -6.7831     0.7748 H       
@<TRIPOS>BOND
   1    1    7 ar
   2    1    6 ar
   3    1    2 ar
   4    2    3 ar
   5    2   10 ar
   6    3   11 1
   7    3    4 ar
   8    4    5 ar
   9    4   31 1
  10    5   15 1
  11    5    6 ar
  12    7    8 ar
  13    7   32 1
  14    8    9 ar
  15    8   18 1
  16    9   10 ar
  17    9   33 1
  18   10   34 1
  19   11   12 ar
  20   11   14 ar
  21   12   13 ar
  22   12   35 1
  23   13   24 ar
  24   13   36 1
  25   14   25 ar
  26   14   37 1
  27   15   16 am
  28   15   17 2
  29   16   38 1
  30   16   39 1
  31   18   19 1
  32   18   40 1
  33   18   41 1
  34   19   20 1
  35   19   23 1
  36   20   21 2
  37   20   27 1
  38   21   22 1
  39   21   42 1
  40   22   23 2
  41   23   43 1
  42   24   25 ar
  43   24   26 1
  44   25   44 1
  45   27   28 1
  46   27   29 2
  47   28   30 1
  48   30   45 1
  49   30   46 1
  50   30   47 1

#	End of record

