#	Name: ASD01230153
#	Creating user name:	WinNT
#	Creation time:	15. 06. 2019 19:11

#	Modifying user name:	WinNT
#	Modification time:	15. 06. 2019 19:11

#	Program:	/corina/corina34_cracker 3.40 0067  02.08.2006

@<TRIPOS>MOLECULE
ASD01230153
  17   17    0    0    0
SMALL
NO_CHARGES


@<TRIPOS>ATOM
   1 C1            -0.0170     1.4016     0.0097 C.ar    
   2 C2             0.0021    -0.0041     0.0020 C.ar    
   3 C3             1.2375    -0.6609    -0.0133 C.ar    
   4 C4             2.3899     0.1059    -0.0201 C.ar    
   5 C5             2.2903     1.4852    -0.0118 C.ar    
   6 N6             1.1160     2.0859     0.0026 N.ar    
   7 C7            -1.2203    -0.7500     0.0101 C.1     
   8 N8            -2.1900    -1.3417     0.0166 N.1     
   9 C9             3.7429    -0.5574    -0.0361 C.3     
  10 N10           -1.2269     2.0736     0.0191 N.pl3   
  11 H11            1.2906    -1.7396    -0.0192 H       
  12 H12            3.1907     2.0816    -0.0168 H       
  13 H13            4.0596    -0.7122    -1.0676 H       
  14 H14            4.4657     0.0792     0.4742 H       
  15 H15            3.6822    -1.5191     0.4735 H       
  16 H16           -2.0588     1.5747     0.0203 H       
  17 H17           -1.2430     3.0435     0.0245 H       
@<TRIPOS>BOND
   1    1    2 ar
   2    1    6 ar
   3    1   10 1
   4    2    3 ar
   5    2    7 1
   6    3    4 ar
   7    3   11 1
   8    4    5 ar
   9    4    9 1
  10    5    6 ar
  11    5   12 1
  12    7    8 3
  13    9   13 1
  14    9   14 1
  15    9   15 1
  16   10   16 1
  17   10   17 1

#	End of record

