#	Name: ASD01180134
#	Creating user name:	WinNT
#	Creation time:	15. 06. 2019 19:06

#	Modifying user name:	WinNT
#	Modification time:	15. 06. 2019 19:06

#	Program:	/corina/corina34_cracker 3.40 0067  02.08.2006

@<TRIPOS>MOLECULE
ASD01180134
  20   21    0    0    0
SMALL
NO_CHARGES


@<TRIPOS>ATOM
   1 N1            -0.0157     1.3066     0.0092 N.ar    
   2 C2             0.0021    -0.0041     0.0020 C.ar    
   3 C3             1.1966    -0.7212    -0.0132 C.ar    
   4 C4             2.3901    -0.0573    -0.0210 C.ar    
   5 C5             2.3672     1.3504    -0.0132 C.ar    
   6 C6             3.5537     2.1003    -0.0209 C.ar    
   7 C7             3.4896     3.4626    -0.0135 C.ar    
   8 C8             2.2590     4.1202     0.0017 C.ar    
   9 C9             1.0908     3.4226     0.0095 C.ar    
  10 C10            1.1167     2.0171     0.0022 C.ar    
  11 C11            1.1717    -2.2279    -0.0206 C.3     
  12 F12            4.6317     4.1842    -0.0205 F       
  13 H13           -0.9341    -0.5425     0.0084 H       
  14 H14            3.3254    -0.5971    -0.0325 H       
  15 H15            4.5115     1.6016    -0.0323 H       
  16 H16            2.2334     5.1998     0.0077 H       
  17 H17            0.1467     3.9470     0.0209 H       
  18 H18            1.1557    -2.5860    -1.0500 H       
  19 H19            2.0605    -2.6085     0.4827 H       
  20 H20            0.2809    -2.5792     0.5002 H       
@<TRIPOS>BOND
   1    1    2 ar
   2    1   10 ar
   3    2    3 ar
   4    2   13 1
   5    3    4 ar
   6    3   11 1
   7    4    5 ar
   8    4   14 1
   9    5    6 ar
  10    5   10 ar
  11    6    7 ar
  12    6   15 1
  13    7    8 ar
  14    7   12 1
  15    8    9 ar
  16    8   16 1
  17    9   10 ar
  18    9   17 1
  19   11   18 1
  20   11   19 1
  21   11   20 1

#	End of record

