#	Name: ASD05503002
#	Creating user name:	WinNT
#	Creation time:	15. 06. 2019 21:01

#	Modifying user name:	WinNT
#	Modification time:	15. 06. 2019 21:01

#	Program:	/corina/corina34_cracker 3.40 0067  02.08.2006

@<TRIPOS>MOLECULE
ASD05503002
  39   40    0    0    0
SMALL
NO_CHARGES


@<TRIPOS>ATOM
   1 C1            -0.1505     1.3617     0.4407 C.ar    
   2 C2            -0.0933    -0.0174     0.2841 C.ar    
   3 C3             1.1367    -0.6546     0.2033 C.ar    
   4 C4             2.3059     0.0884     0.2794 C.ar    
   5 C5             2.2419     1.4677     0.4361 C.ar    
   6 C6             1.0158     2.0989     0.5161 C.ar    
   7 N7            -1.2748    -0.7632     0.2083 N.am    
   8 C8            -1.3351    -1.8514    -0.5845 C.2     
   9 C9            -2.5642    -2.7232    -0.5752 C.3     
  10 O10           -0.4001    -2.1290    -1.3054 O.2     
  11 C11           -2.3754    -3.8814    -1.5570 C.3     
  12 C12           -3.6234    -4.7665    -1.5476 C.3     
  13 N13            3.5476    -0.5501     0.1988 N.am    
  14 C14            4.5808     0.0605    -0.4145 C.2     
  15 C15            5.8612    -0.6535    -0.5907 C.ar    
  16 O16            4.4585     1.1992    -0.8228 O.2     
  17 C17            6.0055    -1.9614    -0.1232 C.ar    
  18 C18            7.2039    -2.6225    -0.2909 C.ar    
  19 C19            8.2641    -1.9940    -0.9210 C.ar    
  20 C20            8.1312    -0.6994    -1.3873 C.ar    
  21 C21            6.9340    -0.0253    -1.2318 C.ar    
  22 F22            6.8043     1.2399    -1.6876 F       
  23 H23           -1.1075     1.8587     0.4992 H       
  24 H24            1.1837    -1.7267     0.0819 H       
  25 H25            3.1516     2.0467     0.4953 H       
  26 H26            0.9687     3.1710     0.6379 H       
  27 H27           -2.0504    -0.4969     0.7264 H       
  28 H28           -2.7212    -3.1193     0.4281 H       
  29 H29           -3.4309    -2.1326    -0.8723 H       
  30 H30           -2.2185    -3.4853    -2.5603 H       
  31 H31           -1.5088    -4.4720    -1.2599 H       
  32 H32           -4.4900    -4.1760    -1.8447 H       
  33 H33           -3.4889    -5.5916    -2.2470 H       
  34 H34           -3.7803    -5.1627    -0.5443 H       
  35 H35            3.6652    -1.4323     0.5844 H       
  36 H36            5.1801    -2.4540     0.3691 H       
  37 H37            7.3159    -3.6339     0.0709 H       
  38 H38            9.2000    -2.5176    -1.0486 H       
  39 H39            8.9627    -0.2151    -1.8777 H       
@<TRIPOS>BOND
   1    1    2 ar
   2    1    6 ar
   3    1   23 1
   4    2    3 ar
   5    2    7 1
   6    3    4 ar
   7    3   24 1
   8    4    5 ar
   9    4   13 1
  10    5    6 ar
  11    5   25 1
  12    6   26 1
  13    7    8 am
  14    7   27 1
  15    8    9 1
  16    8   10 2
  17    9   11 1
  18    9   28 1
  19    9   29 1
  20   11   12 1
  21   11   30 1
  22   11   31 1
  23   12   32 1
  24   12   33 1
  25   12   34 1
  26   13   14 am
  27   13   35 1
  28   14   15 1
  29   14   16 2
  30   15   17 ar
  31   15   21 ar
  32   17   18 ar
  33   17   36 1
  34   18   19 ar
  35   18   37 1
  36   19   20 ar
  37   19   38 1
  38   20   21 ar
  39   20   39 1
  40   21   22 1

#	End of record

