#	Name: ASD03331373
#	Creating user name:	WinNT
#	Creation time:	15. 06. 2019 20:39

#	Modifying user name:	WinNT
#	Modification time:	15. 06. 2019 20:39

#	Program:	/corina/corina34_cracker 3.40 0067  02.08.2006

@<TRIPOS>MOLECULE
ASD03331373
  27   29    0    0    0
SMALL
NO_CHARGES


@<TRIPOS>ATOM
   1 N1            -0.0108     1.3978    -0.1178 N.2     
   2 N2             0.0059    -0.0051    -0.0738 N.pl3   
   3 C3             1.2793    -0.4010     0.0714 C.2     
   4 C4             2.0609     0.7089     0.1217 C.2     
   5 C5             1.2310     1.8287     0.0001 C.2     
   6 C6             1.8332    -1.8009     0.1681 C.3     
   7 C7             3.5597     0.6502     0.2850 C.3     
   8 C8             3.9219    -0.7632     0.7648 C.3     
   9 O9             3.2499    -1.7321    -0.0441 O.3     
  10 C10            1.6687     3.2467     0.0025 C.ar    
  11 C11            0.9987     4.1846     0.7890 C.ar    
  12 C12            1.4098     5.5041     0.7880 C.ar    
  13 C13            2.4848     5.8959     0.0081 C.ar    
  14 C14            3.1539     4.9668    -0.7753 C.ar    
  15 C15            2.7533     3.6442    -0.7761 C.ar    
  16 F16            4.2021     5.3545    -1.5343 F       
  17 F17            2.8831     7.1869     0.0099 F       
  18 F18           -0.0506     3.8034     1.5499 F       
  19 H19           -0.7680    -0.5865    -0.1370 H       
  20 H20            1.6282    -2.2109     1.1570 H       
  21 H21            1.3765    -2.4314    -0.5949 H       
  22 H22            4.0436     0.8513    -0.6708 H       
  23 H23            3.8799     1.3847     1.0240 H       
  24 H24            4.9993    -0.9084     0.6852 H       
  25 H25            3.6159    -0.8831     1.8041 H       
  26 H26            0.8916     6.2308     1.3962 H       
  27 H27            3.2775     2.9207    -1.3828 H       
@<TRIPOS>BOND
   1    1    2 1
   2    1    5 2
   3    2    3 1
   4    2   19 1
   5    3    4 2
   6    3    6 1
   7    4    5 1
   8    4    7 1
   9    5   10 1
  10    6    9 1
  11    6   20 1
  12    6   21 1
  13    7    8 1
  14    7   22 1
  15    7   23 1
  16    8    9 1
  17    8   24 1
  18    8   25 1
  19   10   11 ar
  20   10   15 ar
  21   11   12 ar
  22   11   18 1
  23   12   13 ar
  24   12   26 1
  25   13   14 ar
  26   13   17 1
  27   14   15 ar
  28   14   16 1
  29   15   27 1

#	End of record

