#	Name: ASD01916341
#	Creating user name:	WinNT
#	Creation time:	15. 06. 2019 20:07

#	Modifying user name:	WinNT
#	Modification time:	15. 06. 2019 20:07

#	Program:	/corina/corina34_cracker 3.40 0067  02.08.2006

@<TRIPOS>MOLECULE
ASD01916341
  32   34    0    0    0
SMALL
NO_CHARGES


@<TRIPOS>ATOM
   1 C1            -0.0167     1.3797     0.0096 C.ar    
   2 C2             0.0021    -0.0041     0.0020 C.ar    
   3 C3             1.2058    -0.6868    -0.0127 C.ar    
   4 C4             2.3967     0.0084    -0.0203 C.ar    
   5 C5             2.3860     1.4064    -0.0131 C.ar    
   6 C6             1.1660     2.0889     0.0021 C.ar    
   7 C7             3.6184     2.1355    -0.0210 C.1     
   8 C8             4.6288     2.7333    -0.0274 C.1     
   9 C9             5.8612     3.4625    -0.0352 C.2     
  10 S10            6.0110     5.2173    -0.0278 S.3     
  11 C11            7.7623     5.0634    -0.0443 C.2     
  12 C12            8.0872     3.7514    -0.0550 C.2     
  13 N13            7.0520     2.9348    -0.0433 N.2     
  14 C14            8.7629     6.1946    -0.0455 C.3     
  15 N15           10.0809     5.6519     0.3216 N.3     
  16 C16           10.4108     4.4783    -0.4995 C.3     
  17 C17            9.5405     3.2923    -0.0740 C.3     
  18 C18           11.1233     6.6811     0.2116 C.3     
  19 H19           -0.9600     1.9056     0.0169 H       
  20 H20           -0.9274    -0.5540     0.0079 H       
  21 H21            1.2125    -1.7667    -0.0178 H       
  22 H22            3.3354    -0.5257    -0.0314 H       
  23 H23            1.1498     3.1687     0.0074 H       
  24 H24            8.8134     6.6379    -1.0399 H       
  25 H25            8.4627     6.9499     0.6808 H       
  26 H26           10.2257     4.7062    -1.5492 H       
  27 H27           11.4620     4.2242    -0.3636 H       
  28 H28            9.8340     2.9591     0.9214 H       
  29 H29            9.6588     2.4753    -0.7858 H       
  30 H30           10.8525     7.5395     0.8263 H       
  31 H31           12.0740     6.2735     0.5551 H       
  32 H32           11.2166     6.9940    -0.8284 H       
@<TRIPOS>BOND
   1    1    2 ar
   2    1    6 ar
   3    1   19 1
   4    2    3 ar
   5    2   20 1
   6    3    4 ar
   7    3   21 1
   8    4    5 ar
   9    4   22 1
  10    5    6 ar
  11    5    7 1
  12    6   23 1
  13    7    8 3
  14    8    9 1
  15    9   10 1
  16    9   13 2
  17   10   11 1
  18   11   12 2
  19   11   14 1
  20   12   13 1
  21   12   17 1
  22   14   15 1
  23   14   24 1
  24   14   25 1
  25   15   16 1
  26   15   18 1
  27   16   17 1
  28   16   26 1
  29   16   27 1
  30   17   28 1
  31   17   29 1
  32   18   30 1
  33   18   31 1
  34   18   32 1

#	End of record

