#	Name: ASD07730019
#	Creating user name:	WinNT
#	Creation time:	15. 06. 2019 21:11

#	Modifying user name:	WinNT
#	Modification time:	15. 06. 2019 21:11

#	Program:	/corina/corina34_cracker 3.40 0067  02.08.2006

@<TRIPOS>MOLECULE
ASD07730019
  38   41    0    0    0
SMALL
NO_CHARGES


@<TRIPOS>ATOM
   1 C1            -0.0167     1.3770     0.0096 C.ar    
   2 C2             0.0021    -0.0041     0.0020 C.ar    
   3 C3             1.2145    -0.6804    -0.0132 C.ar    
   4 C4             2.4049     0.0343    -0.0207 C.ar    
   5 C5             2.3797     1.4152    -0.0130 C.ar    
   6 C6             1.1705     2.0860     0.0021 C.ar    
   7 N7             1.2368    -2.0822    -0.0204 N.pl3   
   8 N8             2.3801    -2.8981    -0.0357 N.2     
   9 N9             0.2120    -2.8642    -0.0088 N.2     
  10 N10            0.6007    -4.0896    -0.0208 N.2     
  11 C11            1.9368    -4.1419    -0.0376 C.2     
  12 C12            2.7679    -5.3709    -0.0557 C.ar    
  13 C13            4.1574    -5.2755    -0.0728 C.ar    
  14 C14            2.1601    -6.6296    -0.0499 C.ar    
  15 C15            2.9441    -7.7723    -0.0664 C.ar    
  16 C16            4.3216    -7.6664    -0.0886 C.ar    
  17 C17            4.9262    -6.4215    -0.0892 C.ar    
  18 O18            0.8058    -6.7324    -0.0276 O.3     
  19 C19            0.2552    -8.0510    -0.0228 C.3     
  20 C20           -1.2492    -7.9672     0.0026 C.2     
  21 C21           -2.0528    -7.9198    -1.0751 C.2     
  22 C22           -3.3800    -7.8469    -0.5935 C.2     
  23 C23           -3.3082    -7.8542     0.7497 C.2     
  24 O24           -2.0154    -7.9331     1.1051 O.3     
  25 H25           -0.9595     1.9036     0.0169 H       
  26 H26           -0.9255    -0.5573     0.0082 H       
  27 H27            3.3495    -0.4891    -0.0321 H       
  28 H28            3.3052     1.9717    -0.0188 H       
  29 H29            1.1534     3.1658     0.0080 H       
  30 H30            4.6327    -4.3057    -0.0737 H       
  31 H31            2.4779    -8.7465    -0.0616 H       
  32 H32            4.9293    -8.5591    -0.1015 H       
  33 H33            6.0034    -6.3466    -0.1066 H       
  34 H34            0.5745    -8.5813    -0.9201 H       
  35 H35            0.6042    -8.5873     0.8596 H       
  36 H36           -1.7434    -7.9339    -2.1097 H       
  37 H37           -4.2791    -7.7950    -1.1896 H       
  38 H38           -4.1478    -7.8086     1.4274 H       
@<TRIPOS>BOND
   1    1    2 ar
   2    1    6 ar
   3    1   25 1
   4    2    3 ar
   5    2   26 1
   6    3    4 ar
   7    3    7 1
   8    4    5 ar
   9    4   27 1
  10    5    6 ar
  11    5   28 1
  12    6   29 1
  13    7    8 1
  14    7    9 1
  15    8   11 2
  16    9   10 2
  17   10   11 1
  18   11   12 1
  19   12   13 ar
  20   12   14 ar
  21   13   17 ar
  22   13   30 1
  23   14   15 ar
  24   14   18 1
  25   15   16 ar
  26   15   31 1
  27   16   17 ar
  28   16   32 1
  29   17   33 1
  30   18   19 1
  31   19   20 1
  32   19   34 1
  33   19   35 1
  34   20   21 2
  35   20   24 1
  36   21   22 1
  37   21   36 1
  38   22   23 2
  39   22   37 1
  40   23   24 1
  41   23   38 1

#	End of record

