#	Name: ASD01901329
#	Creating user name:	WinNT
#	Creation time:	15. 06. 2019 19:53

#	Modifying user name:	WinNT
#	Modification time:	15. 06. 2019 19:53

#	Program:	/corina/corina34_cracker 3.40 0067  02.08.2006

@<TRIPOS>MOLECULE
ASD01901329
  41   45    0    0    0
SMALL
NO_CHARGES


@<TRIPOS>ATOM
   1 C1            -0.0169     1.3924     0.0097 C.ar    
   2 C2            -1.2325     2.0659     0.0184 C.ar    
   3 C3            -2.4211     1.3484     0.0190 C.ar    
   4 C4            -2.3999    -0.0363     0.0109 C.ar    
   5 C5            -1.1969    -0.7133     0.0023 C.ar    
   6 C6             0.0021    -0.0041     0.0020 C.ar    
   7 C7             1.2961    -0.7304    -0.0142 C.2     
   8 N8             3.2250    -1.4601     1.1354 N.2     
   9 C9             2.0829    -0.8175     1.1548 C.2     
  10 C10            1.7403    -1.3294    -1.1597 C.2     
  11 N11            2.9337    -1.9892    -1.1399 N.pl3   
  12 C12            3.6711    -2.0467     0.0146 C.2     
  13 C13            3.6308    -2.6724    -2.0996 C.2     
  14 C14            4.7626    -3.1262    -1.5202 C.2     
  15 N15            4.7727    -2.7382    -0.2416 N.2     
  16 C16            5.8363    -3.9344    -2.2022 C.3     
  17 O17            5.4745    -4.1511    -3.5675 O.3     
  18 C18            6.3418    -4.8684    -4.3292 C.ar    
  19 C19            7.5141    -5.3586    -3.7724 C.ar    
  20 C20            6.0536    -5.1166    -5.6634 C.ar    
  21 C21            6.9368    -5.8460    -6.4355 C.ar    
  22 C22            8.1070    -6.3290    -5.8796 C.ar    
  23 C23            8.3941    -6.0875    -4.5488 C.ar    
  24 F24           -3.6026     2.0034     0.0278 F       
  25 O25           -0.9874     3.4096     0.0248 O.3     
  26 C26            0.3869     3.5473     0.4317 C.3     
  27 O27            0.9925     2.3107     0.0050 O.3     
  28 H28           -3.3281    -0.5885     0.0118 H       
  29 H29           -1.1853    -1.7933    -0.0040 H       
  30 H30            1.7426    -0.3526     2.0683 H       
  31 H31            1.1552    -1.2813    -2.0662 H       
  32 H32            3.3318    -2.8204    -3.1267 H       
  33 H33            6.7815    -3.3932    -2.1582 H       
  34 H34            5.9437    -4.8947    -1.6979 H       
  35 H35            7.7388    -5.1702    -2.7330 H       
  36 H36            5.1393    -4.7401    -6.0979 H       
  37 H37            6.7129    -6.0395    -7.4742 H       
  38 H38            8.7959    -6.8997    -6.4847 H       
  39 H39            9.3069    -6.4693    -4.1158 H       
  40 H40            0.8530     4.3936    -0.0729 H       
  41 H41            0.4568     3.6591     1.5137 H       
@<TRIPOS>BOND
   1    1    6 ar
   2    1   27 1
   3    1    2 ar
   4    2   25 1
   5    2    3 ar
   6    3    4 ar
   7    3   24 1
   8    4    5 ar
   9    4   28 1
  10    5    6 ar
  11    5   29 1
  12    6    7 1
  13    7   10 2
  14    7    9 1
  15    8    9 2
  16    8   12 1
  17    9   30 1
  18   10   11 1
  19   10   31 1
  20   11   13 1
  21   11   12 1
  22   12   15 2
  23   13   14 2
  24   13   32 1
  25   14   15 1
  26   14   16 1
  27   16   17 1
  28   16   33 1
  29   16   34 1
  30   17   18 1
  31   18   20 ar
  32   18   19 ar
  33   19   23 ar
  34   19   35 1
  35   20   21 ar
  36   20   36 1
  37   21   22 ar
  38   21   37 1
  39   22   23 ar
  40   22   38 1
  41   23   39 1
  42   25   26 1
  43   26   27 1
  44   26   40 1
  45   26   41 1

#	End of record

