#	Name: ASD01816595
#	Creating user name:	WinNT
#	Creation time:	15. 06. 2019 19:35

#	Modifying user name:	WinNT
#	Modification time:	15. 06. 2019 19:35

#	Program:	/corina/corina34_cracker 3.40 0067  02.08.2006

@<TRIPOS>MOLECULE
ASD01816595
  80   87    0    0    0
SMALL
NO_CHARGES


@<TRIPOS>ATOM
   1 C1            -0.0165     1.3805     0.0442 C.ar    
   2 C2             0.0022    -0.0043     0.0361 C.ar    
   3 C3            -1.1753    -0.7254     0.0320 C.ar    
   4 C4            -2.3995    -0.0671     0.0356 C.ar    
   5 C5            -2.4231     1.3373     0.0438 C.ar    
   6 C6            -1.2279     2.0602     0.0541 C.ar    
   7 N7            -3.5816    -0.7892     0.0306 N.pl3   
   8 C8            -4.7923    -0.2090     0.0336 C.2     
   9 C9            -4.9388     1.1557     0.0421 C.2     
  10 C10           -3.7325     2.0146     0.0475 C.2     
  11 C11           -6.0661     2.0829     0.0482 C.2     
  12 N12           -5.5331     3.3237     0.0566 N.am    
  13 N13           -4.1377     3.2525     0.0559 N.2     
  14 C14           -6.2735     4.5126     0.0637 C.ar    
  15 O15           -7.2520     1.7948     0.0461 O.2     
  16 F16            1.1447     2.0710     0.0481 F       
  17 C17           -6.7310     5.0401     1.2633 C.ar    
  18 C18           -7.4607     6.2133     1.2673 C.ar    
  19 C19           -7.7366     6.8627     0.0784 C.ar    
  20 C20           -7.2830     6.3413    -1.1198 C.ar    
  21 C21           -6.5472     5.1707    -1.1310 C.ar    
  22 N22           -1.2507     3.4560     0.0628 N.3     
  23 C23           -0.5794     3.9861     1.2571 C.3     
  24 C24           -0.6239     5.4922     1.2315 C.ar    
  25 C25           -1.6848     6.1612     1.8138 C.ar    
  26 C26           -1.7283     7.5415     1.7919 C.ar    
  27 C27           -0.7055     8.2574     1.1845 C.ar    
  28 C28            0.3583     7.5829     0.6007 C.ar    
  29 C29            0.3991     6.2026     0.6307 C.ar    
  30 N30           -0.7471     9.6584     1.1603 N.pl3   
  31 N31           -1.7549    10.4629     1.7077 N.2     
  32 C32            0.1813    10.4727     0.6095 C.2     
  33 C33           -0.2272    11.7491     0.7972 C.2     
  34 C34           -1.4435    11.7149     1.4881 C.2     
  35 C35           -3.5072    -2.2522     0.0210 C.3     
  36 C36           -4.0782    -2.8005     1.3303 C.3     
  37 C37           -4.0006    -4.3285     1.3203 C.3     
  38 F38           -6.1042     4.6612    -2.3012 F       
  39 C39           -4.3185    -2.7964    -1.1566 C.3     
  40 C40           -4.2408    -4.3244    -1.1666 C.3     
  41 C41           -4.8118    -4.8727     0.1428 C.3     
  42 N42           -3.7718    -2.2715    -2.4103 N.pl3   
  43 C43           -4.5838    -2.1723    -3.5358 C.ar    
  44 N44           -5.8492    -2.5538    -3.4676 N.ar    
  45 C45           -4.0593    -1.6668    -4.7237 C.ar    
  46 C46           -4.8794    -1.5742    -5.8352 C.ar    
  47 C47           -6.1995    -1.9911    -5.7210 C.ar    
  48 C48           -6.6533    -2.4763    -4.5116 C.ar    
  49 F49           -2.7688    -1.2724    -4.7896 F       
  50 H50            0.9480    -0.5257     0.0326 H       
  51 H51           -1.1450    -1.8050     0.0257 H       
  52 H52           -5.6742    -0.8325     0.0290 H       
  53 H53           -6.5170     4.5336     2.1929 H       
  54 H54           -7.8166     6.6236     2.2008 H       
  55 H55           -8.3079     7.7792     0.0851 H       
  56 H56           -7.5002     6.8511    -2.0468 H       
  57 H57           -0.8389     3.8296    -0.7792 H       
  58 H58           -1.0870     3.6227     2.1506 H       
  59 H59            0.4586     3.6534     1.2682 H       
  60 H60           -2.4803     5.6037     2.2858 H       
  61 H61           -2.5574     8.0634     2.2466 H       
  62 H62            1.1552     8.1370     0.1271 H       
  63 H63            1.2266     5.6774     0.1770 H       
  64 H64            1.0866    10.1606     0.1101 H       
  65 H65            0.2947    12.6374     0.4732 H       
  66 H66           -2.0254    12.5739     1.7879 H       
  67 H67           -2.4672    -2.5625    -0.0800 H       
  68 H68           -3.5002    -2.4128     2.1692 H       
  69 H69           -5.1182    -2.4902     1.4313 H       
  70 H70           -2.9605    -4.6388     1.2193 H       
  71 H71           -4.4073    -4.7191     2.2531 H       
  72 H72           -5.3585    -2.4861    -1.0556 H       
  73 H73           -4.8188    -4.7121    -2.0055 H       
  74 H74           -3.2008    -4.6347    -1.2676 H       
  75 H75           -4.7565    -5.9612     0.1356 H       
  76 H76           -5.8518    -4.5623     0.2438 H       
  77 H77           -2.8437    -1.9930    -2.4557 H       
  78 H78           -4.5016    -1.1863    -6.7696 H       
  79 H79           -6.8654    -1.9316    -6.5692 H       
  80 H80           -7.6789    -2.8017    -4.4193 H       
@<TRIPOS>BOND
   1    1    2 ar
   2    1   16 1
   3    1    6 ar
   4    2    3 ar
   5    2   50 1
   6    3    4 ar
   7    3   51 1
   8    4    5 ar
   9    4    7 1
  10    5    6 ar
  11    5   10 1
  12    6   22 1
  13    7    8 1
  14    7   35 1
  15    8    9 2
  16    8   52 1
  17    9   10 1
  18    9   11 1
  19   10   13 2
  20   11   12 am
  21   11   15 2
  22   12   13 1
  23   12   14 1
  24   14   17 ar
  25   14   21 ar
  26   17   18 ar
  27   17   53 1
  28   18   19 ar
  29   18   54 1
  30   19   20 ar
  31   19   55 1
  32   20   21 ar
  33   20   56 1
  34   21   38 1
  35   22   23 1
  36   22   57 1
  37   23   24 1
  38   23   58 1
  39   23   59 1
  40   24   25 ar
  41   24   29 ar
  42   25   26 ar
  43   25   60 1
  44   26   27 ar
  45   26   61 1
  46   27   28 ar
  47   27   30 1
  48   28   29 ar
  49   28   62 1
  50   29   63 1
  51   30   31 1
  52   30   32 1
  53   31   34 2
  54   32   33 2
  55   32   64 1
  56   33   34 1
  57   33   65 1
  58   34   66 1
  59   35   36 1
  60   35   39 1
  61   35   67 1
  62   36   37 1
  63   36   68 1
  64   36   69 1
  65   37   41 1
  66   37   70 1
  67   37   71 1
  68   39   40 1
  69   39   42 1
  70   39   72 1
  71   40   41 1
  72   40   73 1
  73   40   74 1
  74   41   75 1
  75   41   76 1
  76   42   43 1
  77   42   77 1
  78   43   44 ar
  79   43   45 ar
  80   44   48 ar
  81   45   46 ar
  82   45   49 1
  83   46   47 ar
  84   46   78 1
  85   47   48 ar
  86   47   79 1
  87   48   80 1

#	End of record

