#	Name: ASD03730077
#	Creating user name:	WinNT
#	Creation time:	15. 06. 2019 20:43

#	Modifying user name:	WinNT
#	Modification time:	15. 06. 2019 20:43

#	Program:	/corina/corina34_cracker 3.40 0067  02.08.2006

@<TRIPOS>MOLECULE
ASD03730077
  49   54    0    0    0
SMALL
NO_CHARGES


@<TRIPOS>ATOM
   1 C1            -0.0187     1.5021     0.0187 C.2     
   2 C2             0.0011    -0.0045    -0.0114 C.3     
   3 O3             1.0236     2.1220     0.0371 O.2     
   4 N4            -1.1946     2.1607     0.0195 N.am    
   5 O5             6.2136     2.8433     2.2215 O.3     
   6 C6             7.6304     2.7828     2.4707 C.3     
   7 O7             7.8344     1.4454     2.9634 O.3     
   8 C8             6.8310     0.6973     2.4172 C.ar    
   9 C9             5.8342     1.5574     1.9621 C.ar    
  10 C10            6.6856    -0.6703     2.2681 C.ar    
  11 C11            5.5466    -1.1969     1.6666 C.ar    
  12 C12            4.5539    -0.3281     1.2235 C.ar    
  13 C13            4.6987     1.0363     1.3651 C.ar    
  14 O14            5.2172    -2.4953     1.4099 O.3     
  15 C15            3.4556    -1.1860     0.6546 C.3     
  16 C16            3.7988    -2.5883     1.1756 C.3     
  17 N17            1.3885    -0.4747    -0.0128 N.am    
  18 C18            2.0946    -0.7391     1.1046 C.2     
  19 C19            3.4139    -1.1406    -0.8441 C.ar    
  20 C20            4.3304    -1.4289    -1.8306 C.ar    
  21 C21            3.9834    -1.2854    -3.1621 C.ar    
  22 C22            2.7144    -0.8512    -3.4998 C.ar    
  23 C23            1.7932    -0.5602    -2.5153 C.ar    
  24 C24            2.1337    -0.7022    -1.1723 C.ar    
  25 O25            1.7065    -0.6365     2.2491 O.2     
  26 C26           -1.2153     3.5564     0.1329 C.ar    
  27 C27           -2.3322     4.1959     0.6585 C.ar    
  28 C28           -2.3484     5.5762     0.7687 C.ar    
  29 C29           -1.2535     6.3168     0.3553 C.ar    
  30 C30           -0.1430     5.6810    -0.1674 C.ar    
  31 C31           -0.1186     4.3035    -0.2741 C.ar    
  32 F32           -3.4323     6.2004     1.2792 F       
  33 F33           -3.3998     3.4722     1.0606 F       
  34 H34           -0.5131    -0.3922     0.8681 H       
  35 H35           -0.5028    -0.3566    -0.9115 H       
  36 H36           -2.0265     1.6680    -0.0585 H       
  37 H37            8.1886     2.9403     1.5479 H       
  38 H38            7.9184     3.5164     3.2237 H       
  39 H39            7.4613    -1.3338     2.6210 H       
  40 H40            3.9242     1.6998     1.0097 H       
  41 H41            3.5796    -3.3454     0.4227 H       
  42 H42            3.2661    -2.7977     2.1032 H       
  43 H43            5.3208    -1.7677    -1.5646 H       
  44 H44            4.7016    -1.5123    -3.9361 H       
  45 H45            2.4436    -0.7390    -4.5393 H       
  46 H46            0.8045    -0.2211    -2.7869 H       
  47 H47           -1.2675     7.3933     0.4411 H       
  48 H48            0.7089     6.2616    -0.4892 H       
  49 H49            0.7519     3.8086    -0.6787 H       
@<TRIPOS>BOND
   1    1    2 1
   2    1    3 2
   3    1    4 am
   4    2   17 1
   5    2   34 1
   6    2   35 1
   7    4   26 1
   8    4   36 1
   9    5    6 1
  10    5    9 1
  11    6    7 1
  12    6   37 1
  13    6   38 1
  14    7    8 1
  15    8    9 ar
  16    8   10 ar
  17    9   13 ar
  18   10   11 ar
  19   10   39 1
  20   11   12 ar
  21   11   14 1
  22   12   13 ar
  23   12   15 1
  24   13   40 1
  25   14   16 1
  26   15   16 1
  27   15   18 1
  28   15   19 1
  29   16   41 1
  30   16   42 1
  31   17   18 am
  32   17   24 1
  33   18   25 2
  34   19   20 ar
  35   19   24 ar
  36   20   21 ar
  37   20   43 1
  38   21   22 ar
  39   21   44 1
  40   22   23 ar
  41   22   45 1
  42   23   24 ar
  43   23   46 1
  44   26   27 ar
  45   26   31 ar
  46   27   28 ar
  47   27   33 1
  48   28   29 ar
  49   28   32 1
  50   29   30 ar
  51   29   47 1
  52   30   31 ar
  53   30   48 1
  54   31   49 1

#	End of record

