#	Name: ASD03240337
#	Creating user name:	WinNT
#	Creation time:	15. 06. 2019 20:34

#	Modifying user name:	WinNT
#	Modification time:	15. 06. 2019 20:34

#	Program:	/corina/corina34_cracker 3.40 0067  02.08.2006

@<TRIPOS>MOLECULE
ASD03240337
  39   40    0    0    0
SMALL
NO_CHARGES


@<TRIPOS>ATOM
   1 S1             0.9321    -2.3546     3.3028 S.2     
   2 O2             1.0126     1.3394     0.2103 O.3     
   3 O3             1.3514    -1.9771     5.6218 O.2     
   4 O4            -1.5113    -4.4367     0.5130 O.2     
   5 O5            -1.0831    -4.3419    -1.5506 O.2     
   6 N6             0.0252    -0.0185     2.4226 N.am    
   7 N7             0.5760    -0.1171     4.6890 N.am    
   8 N8            -1.0703    -3.8289    -0.4460 N.pl3   
   9 C9             1.1361    -0.1581     7.0715 C.ar    
  10 C10            0.8800     1.7876     8.4563 C.ar    
  11 C11            1.7080    -0.2570     9.4022 C.ar    
  12 C12            1.6058    -0.8754     8.1734 C.ar    
  13 C13            0.7729     1.1815     7.2217 C.ar    
  14 C14            1.3463     1.0710     9.5442 C.ar    
  15 C15            0.0111    -0.6094     1.1525 C.ar    
  16 C16            1.0297    -0.8123     5.7507 C.2     
  17 C17            0.4889     3.2337     8.6203 C.3     
  18 C18            2.2142    -1.0297    10.5929 C.3     
  19 C19           -0.5053    -1.8861     0.9851 C.ar    
  20 C20            0.5103     0.0856     0.0532 C.ar    
  21 C21           -0.5190    -2.4666    -0.2690 C.ar    
  22 C22            0.4789    -0.7137     3.4843 C.2     
  23 C23            0.4933    -0.5037    -1.2005 C.ar    
  24 C24           -0.0185    -1.7782    -1.3588 C.ar    
  25 H25            1.8881    -1.9121     8.0640 H       
  26 H26            0.4092     1.7421     6.3733 H       
  27 H27            1.4286     1.5504    10.5084 H       
  28 H28           -0.5670     3.2969     8.8835 H       
  29 H29            1.0881     3.6847     9.4113 H       
  30 H30            0.6627     3.7655     7.6848 H       
  31 H31            3.2978    -0.9306    10.6563 H       
  32 H32            1.7595    -0.6358    11.5018 H       
  33 H33            1.9515    -2.0818    10.4817 H       
  34 H34           -0.8966    -2.4262     1.8346 H       
  35 H35           -0.2916     0.8911     2.5379 H       
  36 H36            0.3192     0.8127     4.7918 H       
  37 H37            0.8797     0.0328    -2.0544 H       
  38 H38           -0.0309    -2.2359    -2.3369 H       
  39 H39            1.9595     1.3622     0.4050 H       
@<TRIPOS>BOND
   1    1   22 2
   2    2   20 1
   3    2   39 1
   4    3   16 2
   5    4    8 2
   6    5    8 2
   7    6   15 1
   8    6   22 am
   9    6   35 1
  10    7   16 am
  11    7   22 am
  12    7   36 1
  13    8   21 1
  14    9   12 ar
  15    9   13 ar
  16    9   16 1
  17   10   13 ar
  18   10   14 ar
  19   10   17 1
  20   11   12 ar
  21   11   14 ar
  22   11   18 1
  23   12   25 1
  24   13   26 1
  25   14   27 1
  26   15   19 ar
  27   15   20 ar
  28   17   28 1
  29   17   29 1
  30   17   30 1
  31   18   31 1
  32   18   32 1
  33   18   33 1
  34   19   21 ar
  35   19   34 1
  36   20   23 ar
  37   21   24 ar
  38   23   24 ar
  39   23   37 1
  40   24   38 1

#	End of record

