#	Name: ASD01028099
#	Creating user name:	WinNT
#	Creation time:	15. 06. 2019 18:56

#	Modifying user name:	WinNT
#	Modification time:	15. 06. 2019 18:56

#	Program:	/corina/corina34_cracker 3.40 0067  02.08.2006

@<TRIPOS>MOLECULE
ASD01028099
  67   70    0    0    0
SMALL
NO_CHARGES


@<TRIPOS>ATOM
   1 N1             0.5881     1.9525    -1.1529 N.pl3   
   2 C2             0.2838     0.5916    -1.0072 C.ar    
   3 C3             1.2978    -0.3237    -0.7639 C.ar    
   4 C4             2.7255     0.1462    -0.6560 C.3     
   5 C5            -1.0358     0.1598    -1.1009 C.ar    
   6 C6            -1.3336    -1.1895    -0.9559 C.ar    
   7 C7            -0.3119    -2.1023    -0.7173 C.ar    
   8 C8             1.0002    -1.6662    -0.6198 C.ar    
   9 O9            -2.1976     0.8428    -1.3253 O.3     
  10 C10           -3.1586    -0.1537    -1.7215 C.3     
  11 O11           -2.6829    -1.3565    -1.0887 O.3     
  12 O12           -0.6011    -3.4242    -0.5750 O.3     
  13 C13            0.4061    -4.2623    -0.2152 C.ar    
  14 C14            1.0266    -5.0641    -1.1623 C.ar    
  15 N15            2.0042    -5.8787    -0.8176 N.ar    
  16 C16            2.4296    -5.9653     0.4274 C.ar    
  17 C17            1.8609    -5.1978     1.4269 C.ar    
  18 C18            0.8339    -4.3247     1.1077 C.ar    
  19 C19            3.5505    -6.9141     0.7655 C.3     
  20 C20            3.5006    -0.2399     1.6215 C.2     
  21 O21            3.7397     0.1849     2.8766 O.3     
  22 O22            3.7491    -1.3881     1.3110 O.2     
  23 C23            4.2948    -0.7831     3.8056 C.3     
  24 C24            4.4933    -0.1323     5.1503 C.ar    
  25 C25            3.4781    -0.1601     6.0881 C.ar    
  26 C26            3.6601     0.4370     7.3215 C.ar    
  27 C27            4.8574     1.0613     7.6173 C.ar    
  28 C28            5.8729     1.0883     6.6798 C.ar    
  29 C29            5.6925     0.4875     5.4479 C.ar    
  30 N30            2.9857     0.6084     0.7096 N.am    
  31 C31            2.6861     1.9927     1.0839 C.3     
  32 C32            1.2997     2.0584     1.7277 C.3     
  33 C33            0.9327     3.5184     2.0007 C.3     
  34 C34           -0.4538     3.5840     2.6444 C.3     
  35 C35           -0.8207     5.0440     2.9174 C.3     
  36 O36           -2.1156     5.1053     3.5186 O.3     
  37 H37            1.5133     2.2427    -1.1772 H       
  38 H38           -0.1267     2.6033    -1.2335 H       
  39 H39            3.3982    -0.6774    -0.8952 H       
  40 H40            2.8921     0.9659    -1.3549 H       
  41 H41            1.7920    -2.3769    -0.4345 H       
  42 H42           -4.1520     0.1049    -1.3551 H       
  43 H43           -3.1667    -0.2686    -2.8054 H       
  44 H44            0.7053    -5.0206    -2.1925 H       
  45 H45            2.2158    -5.2753     2.4440 H       
  46 H46            0.3716    -3.7128     1.8681 H       
  47 H47            4.5057    -6.3987     0.6647 H       
  48 H48            3.4331    -7.2645     1.7909 H       
  49 H49            3.5236    -7.7655     0.0853 H       
  50 H50            3.6091    -1.6244     3.9067 H       
  51 H51            5.2538    -1.1393     3.4293 H       
  52 H52            2.5426    -0.6479     5.8570 H       
  53 H53            2.8667     0.4159     8.0540 H       
  54 H54            4.9993     1.5284     8.5807 H       
  55 H55            6.8082     1.5764     6.9107 H       
  56 H56            6.4859     0.5085     4.7155 H       
  57 H57            3.4335     2.3470     1.7939 H       
  58 H58            2.7036     2.6217     0.1939 H       
  59 H59            0.5647     1.6190     1.0531 H       
  60 H60            1.3083     1.5043     2.6663 H       
  61 H61            1.6676     3.9577     2.6752 H       
  62 H62            0.9241     4.0725     1.0620 H       
  63 H63           -1.1887     3.1447     1.9698 H       
  64 H64           -0.4451     3.0299     3.5830 H       
  65 H65           -0.0858     5.4834     3.5919 H       
  66 H66           -0.8293     5.5981     1.9787 H       
  67 H67           -2.4138     6.0029     3.7198 H       
@<TRIPOS>BOND
   1    1    2 1
   2    1   37 1
   3    1   38 1
   4    2    3 ar
   5    2    5 ar
   6    3    4 1
   7    3    8 ar
   8    4   30 1
   9    4   39 1
  10    4   40 1
  11    5    6 ar
  12    5    9 1
  13    6    7 ar
  14    6   11 1
  15    7    8 ar
  16    7   12 1
  17    8   41 1
  18    9   10 1
  19   10   11 1
  20   10   42 1
  21   10   43 1
  22   12   13 1
  23   13   14 ar
  24   13   18 ar
  25   14   15 ar
  26   14   44 1
  27   15   16 ar
  28   16   17 ar
  29   16   19 1
  30   17   18 ar
  31   17   45 1
  32   18   46 1
  33   19   47 1
  34   19   48 1
  35   19   49 1
  36   20   21 1
  37   20   22 2
  38   20   30 am
  39   21   23 1
  40   23   24 1
  41   23   50 1
  42   23   51 1
  43   24   25 ar
  44   24   29 ar
  45   25   26 ar
  46   25   52 1
  47   26   27 ar
  48   26   53 1
  49   27   28 ar
  50   27   54 1
  51   28   29 ar
  52   28   55 1
  53   29   56 1
  54   30   31 1
  55   31   32 1
  56   31   57 1
  57   31   58 1
  58   32   33 1
  59   32   59 1
  60   32   60 1
  61   33   34 1
  62   33   61 1
  63   33   62 1
  64   34   35 1
  65   34   63 1
  66   34   64 1
  67   35   36 1
  68   35   65 1
  69   35   66 1
  70   36   67 1

#	End of record

