#	Name: ASD03331353
#	Creating user name:	WinNT
#	Creation time:	15. 06. 2019 20:39

#	Modifying user name:	WinNT
#	Modification time:	15. 06. 2019 20:39

#	Program:	/corina/corina34_cracker 3.40 0067  02.08.2006

@<TRIPOS>MOLECULE
ASD03331353
  54   56    0    0    0
SMALL
NO_CHARGES


@<TRIPOS>ATOM
   1 C1             0.3346     1.6190     0.2641 C.3     
   2 C2             0.2778     0.1309     0.0270 C.2     
   3 C3             1.3701    -0.6262    -0.2360 C.2     
   4 C4             2.7658    -0.0600    -0.3253 C.3     
   5 C5             2.6469     1.4636    -0.4719 C.3     
   6 N6             1.7314     1.9880     0.5508 N.3     
   7 N7            -0.4305    -1.9400    -0.2198 N.2     
   8 N8             0.9624    -1.9084    -0.3906 N.am    
   9 C9            -0.8435    -0.7140     0.0311 C.2     
  10 C10            1.7533    -2.9658    -0.6604 C.2     
  11 O11            2.9518    -2.8114    -0.7869 O.2     
  12 N12            1.2147    -4.1945    -0.7899 N.am    
  13 C13           -2.2469    -0.2994     0.2752 C.ar    
  14 C14           -3.0439    -1.0179     1.1676 C.ar    
  15 C15           -4.3505    -0.6276     1.3922 C.ar    
  16 C16           -4.8693     0.4741     0.7329 C.ar    
  17 C17           -4.0807     1.1910    -0.1555 C.ar    
  18 C18           -2.7714     0.8118    -0.3815 C.ar    
  19 F19           -4.5921     2.2648    -0.7963 F       
  20 F20           -6.1472     0.8518     0.9551 F       
  21 F21           -2.5390    -2.0934     1.8107 F       
  22 C22            1.2645    -6.4157    -1.7660 C.2     
  23 C23            2.0744    -5.3439    -1.0831 C.3     
  24 C24            2.6521    -5.8949     0.2221 C.3     
  25 C25            1.5137    -6.4023     1.1095 C.3     
  26 O26            0.0696    -6.4892    -1.5717 O.2     
  27 N27            1.8680    -7.2925    -2.5927 N.am    
  28 C28            1.1027    -8.3998    -3.1711 C.3     
  29 C29            3.6081    -7.0479    -0.0900 C.3     
  30 C30            3.4120    -4.7855     0.9519 C.3     
  31 H31           -0.0096     2.1463    -0.6256 H       
  32 H32           -0.2963     1.8801     1.1137 H       
  33 H33            3.3205    -0.3012     0.5815 H       
  34 H34            3.2777    -0.4754    -1.1933 H       
  35 H35            3.6297     1.9180    -0.3466 H       
  36 H36            2.2603     1.7037    -1.4624 H       
  37 H37            1.8292     2.9878     0.6451 H       
  38 H38            0.2579    -4.3177    -0.6889 H       
  39 H39           -4.9680    -1.1829     2.0826 H       
  40 H40           -2.1569     1.3732    -1.0698 H       
  41 H41            2.8883    -5.0313    -1.7373 H       
  42 H42            0.9723    -7.1926     0.5896 H       
  43 H43            1.9252    -6.7948     2.0394 H       
  44 H44            0.8326    -5.5808     1.3318 H       
  45 H45            2.8090    -7.1905    -2.8047 H       
  46 H46            0.7047    -9.0235    -2.3707 H       
  47 H47            0.2798    -8.0016    -3.7648 H       
  48 H48            1.7542    -8.9980    -3.8081 H       
  49 H49            4.4548    -6.6725    -0.6647 H       
  50 H50            3.9668    -7.4849     0.8420 H       
  51 H51            3.0839    -7.8079    -0.6695 H       
  52 H52            2.7309    -3.9641     1.1742 H       
  53 H53            3.8236    -5.1781     1.8818 H       
  54 H54            4.2230    -4.4241     0.3197 H       
@<TRIPOS>BOND
   1    1    2 1
   2    1    6 1
   3    1   31 1
   4    1   32 1
   5    2    3 2
   6    2    9 1
   7    3    4 1
   8    3    8 1
   9    4    5 1
  10    4   33 1
  11    4   34 1
  12    5    6 1
  13    5   35 1
  14    5   36 1
  15    6   37 1
  16    7    8 1
  17    7    9 2
  18    8   10 am
  19    9   13 1
  20   10   11 2
  21   10   12 am
  22   12   23 1
  23   12   38 1
  24   13   14 ar
  25   13   18 ar
  26   14   15 ar
  27   14   21 1
  28   15   16 ar
  29   15   39 1
  30   16   17 ar
  31   16   20 1
  32   17   18 ar
  33   17   19 1
  34   18   40 1
  35   22   26 2
  36   22   27 am
  37   22   23 1
  38   23   24 1
  39   23   41 1
  40   24   25 1
  41   24   29 1
  42   24   30 1
  43   25   42 1
  44   25   43 1
  45   25   44 1
  46   27   28 1
  47   27   45 1
  48   28   46 1
  49   28   47 1
  50   28   48 1
  51   29   49 1
  52   29   50 1
  53   29   51 1
  54   30   52 1
  55   30   53 1
  56   30   54 1

#	End of record

