#	Name: ASD03320046
#	Creating user name:	WinNT
#	Creation time:	15. 06. 2019 20:36

#	Modifying user name:	WinNT
#	Modification time:	15. 06. 2019 20:36

#	Program:	/corina/corina34_cracker 3.40 0067  02.08.2006

@<TRIPOS>MOLECULE
ASD03320046
  49   52    0    0    0
SMALL
NO_CHARGES


@<TRIPOS>ATOM
   1 C1            -0.0248     1.3860    -0.0237 C.2     
   2 C2            -0.1096    -0.0871    -0.0187 C.ar    
   3 C3             1.0549    -0.8649    -0.0699 C.ar    
   4 C4             0.9225    -2.2505    -0.0624 C.ar    
   5 C5            -0.3656    -2.8114    -0.0042 C.ar    
   6 N6            -1.4392    -2.0372     0.0425 N.ar    
   7 C7            -1.3510    -0.7235     0.0429 C.ar    
   8 O8             1.0605     1.9324    -0.0724 O.2     
   9 N9            -1.1504     2.1259     0.0202 N.am    
  10 C10           -1.0685     3.5191     0.1360 C.ar    
  11 C11           -2.0992     4.3177    -0.3416 C.ar    
  12 C12           -2.0179     5.6914    -0.2267 C.ar    
  13 C13           -0.9068     6.2736     0.3656 C.ar    
  14 C14            0.1235     5.4765     0.8425 C.ar    
  15 C15            0.0410     4.1025     0.7335 C.ar    
  16 O16           -0.8275     7.6263     0.4784 O.3     
  17 C17            0.3449     8.1579     1.0990 C.3     
  18 F18            1.4742     7.7748     0.3675 F       
  19 F19            0.2625     9.5541     1.1324 F       
  20 F20            0.4456     7.6653     2.4045 F       
  21 N21            2.2471    -4.2734    -0.8291 N.pl3   
  22 N22            3.5339    -4.7762    -0.5981 N.2     
  23 C23            4.1570    -3.9647     0.2183 C.2     
  24 C24            3.2987    -2.9137     0.5420 C.2     
  25 C25            2.1182    -3.1194    -0.1154 C.2     
  26 N26           -0.5131    -4.1861     0.0040 N.3     
  27 C27           -1.8363    -4.5804    -0.5264 C.3     
  28 C28           -2.2782    -5.8351     0.2494 C.3     
  29 C29           -1.1436    -6.1026     1.2648 C.3     
  30 C30           -0.4568    -4.7193     1.3892 C.3     
  31 O31           -2.4192    -6.9443    -0.6404 O.3     
  32 H32            2.0294    -0.4015    -0.1143 H       
  33 H33           -2.2519    -0.1295     0.0870 H       
  34 H34           -2.0173     1.6934    -0.0284 H       
  35 H35           -2.9641     3.8645    -0.8031 H       
  36 H36           -2.8194     6.3126    -0.5984 H       
  37 H37            0.9884     5.9306     1.3033 H       
  38 H38            0.8411     3.4818     1.1091 H       
  39 H39            1.5706    -4.6726    -1.3983 H       
  40 H40            5.1667    -4.0885     0.5811 H       
  41 H41            3.5264    -2.0850     1.1961 H       
  42 H42           -2.5540    -3.7751    -0.3699 H       
  43 H43           -1.7571    -4.8096    -1.5890 H       
  44 H44           -3.2163    -5.6462     0.7714 H       
  45 H45           -1.5516    -6.4183     2.2249 H       
  46 H46           -0.4466    -6.8458     0.8775 H       
  47 H47            0.5769    -4.8310     1.7166 H       
  48 H48           -1.0103    -4.0750     2.0722 H       
  49 H49           -2.6961    -7.7633    -0.2072 H       
@<TRIPOS>BOND
   1    1    2 1
   2    1    8 2
   3    1    9 am
   4    2    3 ar
   5    2    7 ar
   6    3    4 ar
   7    3   32 1
   8    4    5 ar
   9    4   25 1
  10    5    6 ar
  11    5   26 1
  12    6    7 ar
  13    7   33 1
  14    9   10 1
  15    9   34 1
  16   10   11 ar
  17   10   15 ar
  18   11   12 ar
  19   11   35 1
  20   12   13 ar
  21   12   36 1
  22   13   14 ar
  23   13   16 1
  24   14   15 ar
  25   14   37 1
  26   15   38 1
  27   16   17 1
  28   17   18 1
  29   17   19 1
  30   17   20 1
  31   21   22 1
  32   21   25 1
  33   21   39 1
  34   22   23 2
  35   23   24 1
  36   23   40 1
  37   24   25 2
  38   24   41 1
  39   26   27 1
  40   26   30 1
  41   27   28 1
  42   27   42 1
  43   27   43 1
  44   28   29 1
  45   28   31 1
  46   28   44 1
  47   29   30 1
  48   29   45 1
  49   29   46 1
  50   30   47 1
  51   30   48 1
  52   31   49 1

#	End of record

