#	Name: ASD01901077
#	Creating user name:	WinNT
#	Creation time:	15. 06. 2019 19:53

#	Modifying user name:	WinNT
#	Modification time:	15. 06. 2019 19:53

#	Program:	/corina/corina34_cracker 3.40 0067  02.08.2006

@<TRIPOS>MOLECULE
ASD01901077
  42   44    0    0    0
SMALL
NO_CHARGES


@<TRIPOS>ATOM
   1 C1            -0.0184     1.5028     0.0103 C.2     
   2 C2             0.0021    -0.0041     0.0020 C.3     
   3 C3             2.4697     1.5816    -0.0130 C.ar    
   4 C4             1.2427     2.2539     0.0023 C.ar    
   5 C5             1.2360     3.6600     0.0094 C.ar    
   6 C6             2.4352     4.3178     0.0011 C.ar    
   7 C7             3.6197     3.5821    -0.0141 C.ar    
   8 N8             3.5998     2.2555    -0.0211 N.ar    
   9 N9             4.8336     4.2453    -0.0226 N.3     
  10 C10            5.9526     3.2946    -0.0383 C.3     
  11 C11            7.2700     4.0577    -0.1940 C.3     
  12 C12            7.4262     5.0394     0.9706 C.3     
  13 C13            6.2240     5.9874     0.9935 C.3     
  14 C14            4.9370     5.1683     1.1148 C.3     
  15 O15           -1.3386    -0.4987     0.0122 O.3     
  16 C16           -1.4983    -1.8484     0.0064 C.ar    
  17 C17           -2.7733    -2.3978     0.0157 C.ar    
  18 C18           -2.9327    -3.7705     0.0099 C.ar    
  19 C19           -1.8235    -4.5962    -0.0051 C.ar    
  20 C20           -0.5531    -4.0513    -0.0139 C.ar    
  21 C21           -0.3882    -2.6792    -0.0144 C.ar    
  22 Br22          -4.2902    -1.2689     0.0368 Br      
  23 O23           -1.0770     2.0949     0.0185 O.2     
  24 H24            0.5123    -0.3556    -0.8948 H       
  25 H25            0.5293    -0.3651     0.8851 H       
  26 H26            2.4894     0.5018    -0.0141 H       
  27 H27            0.3054     4.2080     0.0209 H       
  28 H28            2.4645     5.3974     0.0059 H       
  29 H29            5.9660     2.7340     0.8964 H       
  30 H30            5.8315     2.6049    -0.8736 H       
  31 H31            8.1015     3.3529    -0.1899 H       
  32 H32            7.2629     4.6076    -1.1351 H       
  33 H33            7.4724     4.4869     1.9090 H       
  34 H34            8.3422     5.6159     0.8407 H       
  35 H35            6.3082     6.6613     1.8461 H       
  36 H36            6.2005     6.5677     0.0711 H       
  37 H37            4.0782     5.8396     1.1171 H       
  38 H38            4.9551     4.5989     2.0441 H       
  39 H39           -3.9241    -4.1987     0.0174 H       
  40 H40           -1.9500    -5.6688    -0.0096 H       
  41 H41            0.3114    -4.6985    -0.0252 H       
  42 H42            0.6046    -2.2543    -0.0264 H       
@<TRIPOS>BOND
   1    1    2 1
   2    1    4 1
   3    1   23 2
   4    2   15 1
   5    2   24 1
   6    2   25 1
   7    3    4 ar
   8    3    8 ar
   9    3   26 1
  10    4    5 ar
  11    5    6 ar
  12    5   27 1
  13    6    7 ar
  14    6   28 1
  15    7    8 ar
  16    7    9 1
  17    9   10 1
  18    9   14 1
  19   10   11 1
  20   10   29 1
  21   10   30 1
  22   11   12 1
  23   11   31 1
  24   11   32 1
  25   12   13 1
  26   12   33 1
  27   12   34 1
  28   13   14 1
  29   13   35 1
  30   13   36 1
  31   14   37 1
  32   14   38 1
  33   15   16 1
  34   16   17 ar
  35   16   21 ar
  36   17   18 ar
  37   17   22 1
  38   18   19 ar
  39   18   39 1
  40   19   20 ar
  41   19   40 1
  42   20   21 ar
  43   20   41 1
  44   21   42 1

#	End of record

