#	Name: ASD08170095
#	Creating user name:	WinNT
#	Creation time:	15. 06. 2019 21:17

#	Modifying user name:	WinNT
#	Modification time:	15. 06. 2019 21:17

#	Program:	/corina/corina34_cracker 3.40 0067  02.08.2006

@<TRIPOS>MOLECULE
ASD08170095
  72   75    0    0    0
SMALL
NO_CHARGES


@<TRIPOS>ATOM
   1 C1            -0.0187     1.5258     0.0104 C.3     
   2 C2             0.0021    -0.0041     0.0020 C.3     
   3 C3             1.4167     2.0553    -0.0004 C.3     
   4 C4             1.3960     3.5852     0.0080 C.3     
   5 C5             2.8098     4.1068    -0.0027 C.2     
   6 C6            -1.4117    -0.5257     0.0127 C.2     
   7 S7             3.7994     4.4593     1.4143 S.3     
   8 C8             5.0770     4.9390     0.3786 C.2     
   9 N9             4.6867     4.8059    -0.8531 N.2     
  10 N10            3.5185     4.3715    -1.0541 N.2     
  11 S11           -2.3742    -0.8935     1.4445 S.3     
  12 N12           -2.1404    -0.7792    -1.0277 N.2     
  13 N13           -3.3061    -1.2119    -0.8091 N.2     
  14 C14           -3.6713    -1.3622     0.4283 C.2     
  15 N15           -4.9107    -1.8251     0.8572 N.am    
  16 C16           -5.8536    -2.1613    -0.0452 C.2     
  17 C17           -7.1965    -2.6628     0.4196 C.3     
  18 O18           -5.6213    -2.0602    -1.2312 O.2     
  19 C19           -7.8141    -3.5168    -0.6576 C.ar    
  20 C20           -8.1115    -1.4724     0.7139 C.3     
  21 O21           -7.0298    -3.4404     1.6068 O.3     
  22 C22           -7.4285    -0.5397     1.7161 C.3     
  23 N23            6.3249     5.3958     0.7887 N.am    
  24 C24            7.2495     5.7444    -0.1278 C.2     
  25 C25            8.6017     6.2394     0.3166 C.3     
  26 O26            6.9932     5.6598    -1.3102 O.2     
  27 C27            9.1976     7.1082    -0.7610 C.ar    
  28 O28            8.4593     7.0005     1.5176 O.3     
  29 C29            9.5221     5.0450     0.5758 C.3     
  30 C30            8.8591     4.0985     1.5786 C.3     
  31 C31           -7.5733    -4.8778    -0.6837 C.ar    
  32 C32           -8.6259    -2.9400    -1.6164 C.ar    
  33 C33           -9.1923    -3.7234    -2.6045 C.ar    
  34 C34           -8.9467    -5.0834    -2.6342 C.ar    
  35 C35           -8.1398    -5.6611    -1.6718 C.ar    
  36 C36            8.9569     8.4694    -0.7633 C.ar    
  37 C37            9.9897     6.5447    -1.7439 C.ar    
  38 C38           10.5363     7.3416    -2.7324 C.ar    
  39 C39           10.2905     8.7019    -2.7382 C.ar    
  40 C40            9.5035     9.2663    -1.7518 C.ar    
  41 H41           -0.5459     1.8868    -0.8726 H       
  42 H42           -0.5289     1.8773     0.9072 H       
  43 H43            0.5123    -0.3556    -0.8948 H       
  44 H44            0.5293    -0.3651     0.8851 H       
  45 H45            1.9439     1.6943     0.8826 H       
  46 H46            1.9269     1.7038    -0.8972 H       
  47 H47            0.8688     3.9463    -0.8751 H       
  48 H48            0.8858     3.9367     0.9048 H       
  49 H49           -5.0964    -1.9059     1.8058 H       
  50 H50           -8.3104    -0.9298    -0.2102 H       
  51 H51           -9.0511    -1.8315     1.1338 H       
  52 H52           -6.4600    -4.2135     1.4938 H       
  53 H53           -8.0803     0.3084     1.9258 H       
  54 H54           -7.2296    -1.0823     2.6403 H       
  55 H55           -6.4889    -0.1806     1.2962 H       
  56 H56            6.5298     5.4635     1.7344 H       
  57 H57            7.8876     7.7751     1.4269 H       
  58 H58            9.7021     4.5152    -0.3596 H       
  59 H59           10.4701     5.3982     0.9816 H       
  60 H60            8.6792     4.6283     2.5140 H       
  61 H61            7.9111     3.7454     1.1729 H       
  62 H62            9.5148     3.2476     1.7633 H       
  63 H63           -6.9424    -5.3290     0.0678 H       
  64 H64           -8.8178    -1.8775    -1.5933 H       
  65 H65           -9.8271    -3.2728    -3.3532 H       
  66 H66           -9.3895    -5.6954    -3.4059 H       
  67 H67           -7.9479    -6.7237    -1.6949 H       
  68 H68            8.3415     8.9103     0.0069 H       
  69 H69           10.1816     5.4819    -1.7394 H       
  70 H70           11.1556     6.9015    -3.4999 H       
  71 H71           10.7179     9.3246    -3.5102 H       
  72 H72            9.3115    10.3291    -1.7563 H       
@<TRIPOS>BOND
   1    1    2 1
   2    1    3 1
   3    1   41 1
   4    1   42 1
   5    2    6 1
   6    2   43 1
   7    2   44 1
   8    3    4 1
   9    3   45 1
  10    3   46 1
  11    4    5 1
  12    4   47 1
  13    4   48 1
  14    5    7 1
  15    5   10 2
  16    6   11 1
  17    6   12 2
  18    7    8 1
  19    8    9 2
  20    8   23 1
  21    9   10 1
  22   11   14 1
  23   12   13 1
  24   13   14 2
  25   14   15 1
  26   15   16 am
  27   15   49 1
  28   16   17 1
  29   16   18 2
  30   17   19 1
  31   17   20 1
  32   17   21 1
  33   19   31 ar
  34   19   32 ar
  35   20   22 1
  36   20   50 1
  37   20   51 1
  38   21   52 1
  39   22   53 1
  40   22   54 1
  41   22   55 1
  42   23   24 am
  43   23   56 1
  44   24   25 1
  45   24   26 2
  46   25   27 1
  47   25   28 1
  48   25   29 1
  49   27   36 ar
  50   27   37 ar
  51   28   57 1
  52   29   30 1
  53   29   58 1
  54   29   59 1
  55   30   60 1
  56   30   61 1
  57   30   62 1
  58   31   35 ar
  59   31   63 1
  60   32   33 ar
  61   32   64 1
  62   33   34 ar
  63   33   65 1
  64   34   35 ar
  65   34   66 1
  66   35   67 1
  67   36   40 ar
  68   36   68 1
  69   37   38 ar
  70   37   69 1
  71   38   39 ar
  72   38   70 1
  73   39   40 ar
  74   39   71 1
  75   40   72 1

#	End of record

