#	Name: ASD01882814
#	Creating user name:	WinNT
#	Creation time:	15. 06. 2019 19:45

#	Modifying user name:	WinNT
#	Modification time:	15. 06. 2019 19:45

#	Program:	/corina/corina34_cracker 3.40 0067  02.08.2006

@<TRIPOS>MOLECULE
ASD01882814
  64   68    0    0    0
SMALL
NO_CHARGES


@<TRIPOS>ATOM
   1 C1            -0.0184     1.5051     0.0103 C.2     
   2 C2             0.0021    -0.0041     0.0020 C.3     
   3 C3             1.4875    -0.3903    -0.0142 C.3     
   4 C4             2.2613     0.9062    -0.0147 C.ar    
   5 C5             1.3712     1.9824    -0.0004 C.ar    
   6 C6             1.8752     3.2946     0.0014 C.ar    
   7 C7             3.2214     3.5140    -0.0107 C.ar    
   8 C8             4.1061     2.4410    -0.0253 C.ar    
   9 C9             3.6208     1.1386    -0.0260 C.ar    
  10 C10           -0.6738    -0.5502     1.2613 C.3     
  11 C11            0.9244     4.4638     0.0163 C.3     
  12 C12            3.7521     4.9245    -0.0086 C.3     
  13 O13            5.4439     2.6658    -0.0377 O.3     
  14 C14            6.2945     1.5176    -0.0525 C.3     
  15 C15            7.7351     1.9599    -0.0648 C.ar    
  16 C16            8.4055     2.1556     1.1252 C.ar    
  17 C17            9.7384     2.5644     1.1122 C.ar    
  18 C18           10.3860     2.7729    -0.1043 C.ar    
  19 C19            9.7053     2.5739    -1.2884 C.ar    
  20 C20            8.3846     2.1633    -1.2694 C.ar    
  21 C21           -2.7796    -1.3021     2.1871 C.3     
  22 C22           -2.1870    -0.2196     1.2511 C.3     
  23 C23           -0.6235    -2.0920     1.2756 C.3     
  24 C24           -1.9625    -2.5701     1.8642 C.3     
  25 C25           10.4641     2.7769     2.3876 C.ar    
  26 C26           12.4727     3.3836     3.5541 C.ar    
  27 C27           11.8213     3.1743     4.7728 C.ar    
  28 C28           10.4868     2.7591     4.7881 C.ar    
  29 C29            9.8143     2.5622     3.6034 C.ar    
  30 C30           11.7979     3.1859     2.3708 C.ar    
  31 C31           12.5436     3.3859     6.0423 C.2     
  32 O32           13.7050     3.7421     6.0283 O.2     
  33 O33           11.9150     3.1840     7.2168 O.3     
  34 O34           -1.0103     2.2032     0.0190 O.2     
  35 H35           -0.4965    -0.3836    -0.8899 H       
  36 H36            1.7329    -0.9726     0.8739 H       
  37 H37            1.7158    -0.9630    -0.9131 H       
  38 H38            4.3097     0.3069    -0.0374 H       
  39 H39           -0.1987    -0.1448     2.1546 H       
  40 H40            0.7049     4.7405     1.0475 H       
  41 H41            1.3808     5.3098    -0.4977 H       
  42 H42           -0.0001     4.1866    -0.4902 H       
  43 H43            3.8902     5.2592     1.0195 H       
  44 H44            4.7080     4.9538    -0.5317 H       
  45 H45            3.0421     5.5806    -0.5121 H       
  46 H46            6.1070     0.9151     0.8363 H       
  47 H47            6.0889     0.9245    -0.9436 H       
  48 H48            7.8986     1.9929     2.0649 H       
  49 H49           11.4183     3.0898    -0.1204 H       
  50 H50           10.2059     2.7355    -2.2316 H       
  51 H51            7.8560     2.0086    -2.1983 H       
  52 H52           -2.6467    -1.0181     3.2311 H       
  53 H53           -3.8349    -1.4617     1.9657 H       
  54 H54           -2.3671     0.7780     1.6516 H       
  55 H55           -2.5960    -0.3128     0.2451 H       
  56 H56           -0.5054    -2.4712     0.2605 H       
  57 H57            0.2020    -2.4329     1.9004 H       
  58 H58           -1.7867    -3.1429     2.7747 H       
  59 H59           -2.4941    -3.1812     1.1348 H       
  60 H60           13.5038     3.7048     3.5408 H       
  61 H61            9.9822     2.5970     5.7291 H       
  62 H62            8.7830     2.2416     3.6149 H       
  63 H63           12.3011     3.3472     1.4289 H       
  64 H64           12.4292     3.3354     8.0217 H       
@<TRIPOS>BOND
   1    1    2 1
   2    1    5 1
   3    1   34 2
   4    2    3 1
   5    2   10 1
   6    2   35 1
   7    3    4 1
   8    3   36 1
   9    3   37 1
  10    4    5 ar
  11    4    9 ar
  12    5    6 ar
  13    6    7 ar
  14    6   11 1
  15    7    8 ar
  16    7   12 1
  17    8    9 ar
  18    8   13 1
  19    9   38 1
  20   10   23 1
  21   10   22 1
  22   10   39 1
  23   11   40 1
  24   11   41 1
  25   11   42 1
  26   12   43 1
  27   12   44 1
  28   12   45 1
  29   13   14 1
  30   14   15 1
  31   14   46 1
  32   14   47 1
  33   15   16 ar
  34   15   20 ar
  35   16   17 ar
  36   16   48 1
  37   17   18 ar
  38   17   25 1
  39   18   19 ar
  40   18   49 1
  41   19   20 ar
  42   19   50 1
  43   20   51 1
  44   21   22 1
  45   21   24 1
  46   21   52 1
  47   21   53 1
  48   22   54 1
  49   22   55 1
  50   23   24 1
  51   23   56 1
  52   23   57 1
  53   24   58 1
  54   24   59 1
  55   25   30 ar
  56   25   29 ar
  57   26   27 ar
  58   26   30 ar
  59   26   60 1
  60   27   28 ar
  61   27   31 1
  62   28   29 ar
  63   28   61 1
  64   29   62 1
  65   30   63 1
  66   31   32 2
  67   31   33 1
  68   33   64 1

#	End of record

