#	Name: ASD02039255
#	Creating user name:	WinNT
#	Creation time:	15. 06. 2019 20:17

#	Modifying user name:	WinNT
#	Modification time:	15. 06. 2019 20:17

#	Program:	/corina/corina34_cracker 3.40 0067  02.08.2006

@<TRIPOS>MOLECULE
ASD02039255
  47   50    0    0    0
SMALL
NO_CHARGES


@<TRIPOS>ATOM
   1 N1            -0.0160     1.3037    -0.0274 N.2     
   2 C2             0.0019    -0.0039    -0.0001 C.2     
   3 C3             1.3718    -0.3810     0.0198 C.2     
   4 C4             2.0347     0.7973     0.0011 C.2     
   5 O5             1.1031     1.7615    -0.0271 O.3     
   6 N6            -1.0991    -0.8547     0.0084 N.pl3   
   7 C7            -0.9158    -2.2379    -0.1060 C.ar    
   8 C8             0.1064    -2.7400    -0.9010 C.ar    
   9 C9             0.2868    -4.1043    -1.0129 C.ar    
  10 C10           -0.5530    -4.9736    -0.3319 C.ar    
  11 C11           -1.5743    -4.4731     0.4618 C.ar    
  12 C12           -1.7523    -3.1085     0.5797 C.ar    
  13 O13            4.0136     1.0223    -1.3338 O.3     
  14 C14            5.3520     1.1906    -1.5038 C.ar    
  15 C15            6.1806     1.3214    -0.3921 C.ar    
  16 C16            7.5390     1.4922    -0.5452 C.ar    
  17 C17            8.0945     1.5352    -1.8193 C.ar    
  18 C18            7.2606     1.4033    -2.9458 C.ar    
  19 C19            5.8837     1.2252    -2.7774 C.ar    
  20 C20            3.5294     0.9895     0.0102 C.3     
  21 O21           -0.3749    -6.3172    -0.4430 O.3     
  22 N22            9.4529     1.7065    -1.9937 N.am    
  23 C23            9.9922     1.7493    -3.2245 C.2     
  24 C24            9.1998     1.6225    -4.3853 C.2     
  25 C25            7.8587     1.4514    -4.2814 C.2     
  26 O26           11.1960     1.9020    -3.3406 O.2     
  27 C27            0.6960    -6.7629    -1.2775 C.3     
  28 F28            0.4933    -6.3014    -2.5826 F       
  29 F29            1.9075    -6.2623    -0.7887 F       
  30 C30           -2.4863    -5.4184     1.2007 C.3     
  31 H31            1.7871    -1.3777     0.0441 H       
  32 H32           -1.9937    -0.4894     0.0935 H       
  33 H33            0.7598    -2.0634    -1.4318 H       
  34 H34            1.0816    -4.4949    -1.6310 H       
  35 H35           -2.5474    -2.7189     1.1981 H       
  36 H36            5.7541     1.2890     0.5995 H       
  37 H37            8.1721     1.5929     0.3239 H       
  38 H38            5.2396     1.1231    -3.6383 H       
  39 H39            3.7718     1.9291     0.5068 H       
  40 H40            3.9986     0.1640     0.5455 H       
  41 H41           10.0267     1.7976    -1.2170 H       
  42 H42            9.6633     1.6615    -5.3600 H       
  43 H43            7.2450     1.3528    -5.1646 H       
  44 H44            0.7269    -7.8524    -1.2781 H       
  45 H45           -2.0703    -5.6287     2.1860 H       
  46 H46           -3.4699    -4.9621     1.3115 H       
  47 H47           -2.5782    -6.3480     0.6391 H       
@<TRIPOS>BOND
   1    1    2 2
   2    1    5 1
   3    2    3 1
   4    2    6 1
   5    3    4 2
   6    3   31 1
   7    4    5 1
   8    4   20 1
   9    6    7 1
  10    6   32 1
  11    7    8 ar
  12    7   12 ar
  13    8    9 ar
  14    8   33 1
  15    9   10 ar
  16    9   34 1
  17   10   11 ar
  18   10   21 1
  19   11   12 ar
  20   11   30 1
  21   12   35 1
  22   13   14 1
  23   13   20 1
  24   14   15 ar
  25   14   19 ar
  26   15   16 ar
  27   15   36 1
  28   16   17 ar
  29   16   37 1
  30   17   18 ar
  31   17   22 1
  32   18   19 ar
  33   18   25 1
  34   19   38 1
  35   20   39 1
  36   20   40 1
  37   21   27 1
  38   22   23 am
  39   22   41 1
  40   23   24 1
  41   23   26 2
  42   24   25 2
  43   24   42 1
  44   25   43 1
  45   27   28 1
  46   27   29 1
  47   27   44 1
  48   30   45 1
  49   30   46 1
  50   30   47 1

#	End of record

