#	Name: ASD01410433
#	Creating user name:	WinNT
#	Creation time:	15. 06. 2019 19:17

#	Modifying user name:	WinNT
#	Modification time:	15. 06. 2019 19:17

#	Program:	/corina/corina34_cracker 3.40 0067  02.08.2006

@<TRIPOS>MOLECULE
ASD01410433
  58   63    0    0    0
SMALL
NO_CHARGES


@<TRIPOS>ATOM
   1 C1            -2.5990     4.6061    -2.8180 C.ar    
   2 C2            -3.2432     4.1439    -3.9644 C.ar    
   3 C3            -4.3108     3.2759    -3.8536 C.ar    
   4 C4            -4.7441     2.8627    -2.6076 C.ar    
   5 C5            -4.1081     3.3183    -1.4609 C.ar    
   6 C6            -3.0322     4.1857    -1.5634 C.ar    
   7 C7            -2.3403     4.6816    -0.3199 C.3     
   8 O8            -4.5372     2.9097    -0.2381 O.3     
   9 C9            -5.5670     2.0239    -0.1863 C.ar    
  10 C10           -5.3256     0.6686    -0.3939 C.ar    
  11 C11           -6.3574    -0.2445    -0.3453 C.ar    
  12 C12           -7.6502     0.1899    -0.0869 C.ar    
  13 C13           -7.8974     1.5591     0.1235 C.ar    
  14 C14           -6.8482     2.4732     0.0780 C.ar    
  15 F15           -2.4350     3.7123     0.6845 F       
  16 F16           -0.9929     4.9294    -0.6033 F       
  17 F17           -2.9507     5.8634     0.1136 F       
  18 N18           -8.7172    -0.6863    -0.0285 N.pl3   
  19 C19           -9.9577    -0.2345     0.2234 C.2     
  20 N20          -10.2375     1.0234     0.4245 N.2     
  21 C21           -9.2853     1.9749     0.3941 C.2     
  22 O22           -9.5632     3.1464     0.5845 O.2     
  23 C23           -8.4947    -2.1182    -0.2433 C.3     
  24 C24           -8.3193    -2.8045     1.0869 C.ar    
  25 C25           -9.4295    -3.1878     1.8196 C.ar    
  26 C26           -9.2684    -3.8181     3.0416 C.ar    
  27 C27           -7.9972    -4.0655     3.5305 C.ar    
  28 C28           -6.8870    -3.6830     2.7974 C.ar    
  29 C29           -7.0481    -3.0566     1.5734 C.ar    
  30 F30           -5.9646    -2.6832     0.8579 F       
  31 F31           -7.8400    -4.6798     4.7235 F       
  32 F32          -10.6702    -2.9464     1.3424 F       
  33 C33           -1.4508     5.5389    -2.9347 C.ar    
  34 C34           -1.4265     6.7146    -2.1770 C.ar    
  35 C35           -0.3784     7.5835    -2.2726 C.ar    
  36 C36            0.6837     7.3082    -3.1295 C.ar    
  37 C37            0.6705     6.1282    -3.8965 C.ar    
  38 C38           -0.4003     5.2406    -3.7909 C.ar    
  39 N39            1.8494     7.9754    -3.4331 N.pl3   
  40 C40            2.5663     7.2645    -4.3565 C.2     
  41 C41            1.9097     6.1389    -4.6782 C.2     
  42 H42           -2.9074     4.4651    -4.9393 H       
  43 H43           -4.8091     2.9190    -4.7428 H       
  44 H44           -5.5800     2.1838    -2.5260 H       
  45 H45           -4.3203     0.3292    -0.5954 H       
  46 H46           -6.1606    -1.2938    -0.5080 H       
  47 H47           -7.0344     3.5247     0.2393 H       
  48 H48          -10.7653    -0.9507     0.2609 H       
  49 H49           -9.3527    -2.5455    -0.7623 H       
  50 H50           -7.5978    -2.2601    -0.8464 H       
  51 H51          -10.1346    -4.1165     3.6136 H       
  52 H52           -5.8952    -3.8756     3.1790 H       
  53 H53           -2.2460     6.9372    -1.5096 H       
  54 H54           -0.3731     8.4876    -1.6819 H       
  55 H55           -0.4158     4.3336    -4.3770 H       
  56 H56            2.1217     8.8237    -3.0495 H       
  57 H57            3.5195     7.5647    -4.7660 H       
  58 H58            2.2336     5.3841    -5.3795 H       
@<TRIPOS>BOND
   1    1    2 ar
   2    1   33 1
   3    1    6 ar
   4    2    3 ar
   5    2   42 1
   6    3    4 ar
   7    3   43 1
   8    4    5 ar
   9    4   44 1
  10    5    6 ar
  11    5    8 1
  12    6    7 1
  13    7   15 1
  14    7   16 1
  15    7   17 1
  16    8    9 1
  17    9   10 ar
  18    9   14 ar
  19   10   11 ar
  20   10   45 1
  21   11   12 ar
  22   11   46 1
  23   12   13 ar
  24   12   18 1
  25   13   14 ar
  26   13   21 1
  27   14   47 1
  28   18   19 1
  29   18   23 1
  30   19   20 2
  31   19   48 1
  32   20   21 1
  33   21   22 2
  34   23   24 1
  35   23   49 1
  36   23   50 1
  37   24   25 ar
  38   24   29 ar
  39   25   26 ar
  40   25   32 1
  41   26   27 ar
  42   26   51 1
  43   27   28 ar
  44   27   31 1
  45   28   29 ar
  46   28   52 1
  47   29   30 1
  48   33   34 ar
  49   33   38 ar
  50   34   35 ar
  51   34   53 1
  52   35   36 ar
  53   35   54 1
  54   36   37 ar
  55   36   39 1
  56   37   38 ar
  57   37   41 1
  58   38   55 1
  59   39   40 1
  60   39   56 1
  61   40   41 2
  62   40   57 1
  63   41   58 1

#	End of record

