#	Name: ASD01882745
#	Creating user name:	WinNT
#	Creation time:	15. 06. 2019 19:45

#	Modifying user name:	WinNT
#	Modification time:	15. 06. 2019 19:45

#	Program:	/corina/corina34_cracker 3.40 0067  02.08.2006

@<TRIPOS>MOLECULE
ASD01882745
  36   38    0    0    0
SMALL
NO_CHARGES


@<TRIPOS>ATOM
   1 N1            -0.0165     1.3692     0.0096 N.pl3   
   2 O2             1.1412    -0.7243    -0.0127 O.3     
   3 C3             0.0021    -0.0041     0.0020 C.2     
   4 N4            -1.0753    -0.7270     0.0089 N.2     
   5 C5            -0.6823    -2.1496     0.0076 C.3     
   6 C6             0.8153    -2.0697     0.3922 C.3     
   7 C7             1.6390    -3.0940    -0.3909 C.3     
   8 O8             3.0178    -2.9666    -0.0377 O.3     
   9 C9             5.2432    -3.7432    -0.3550 C.ar    
  10 C10            3.8916    -3.8096    -0.6484 C.ar    
  11 C11            3.4340    -4.7413    -1.5685 C.ar    
  12 C12            4.3283    -5.5942    -2.1800 C.ar    
  13 C13            5.6840    -5.5285    -1.8842 C.ar    
  14 C14            6.6012    -6.4972    -2.5843 C.3     
  15 C15            8.0507    -6.0243    -2.4959 C.3     
  16 C16            8.3709    -5.7174    -1.0283 C.3     
  17 C17            7.5989    -4.4648    -0.6185 C.3     
  18 C18            6.1414    -4.6008    -0.9744 C.ar    
  19 H19            0.8168     1.8655     0.0043 H       
  20 H20           -0.8631     1.8427     0.0162 H       
  21 H21           -1.2463    -2.7101     0.7532 H       
  22 H22           -0.8071    -2.5872    -0.9829 H       
  23 H23            0.9511    -2.1991     1.4659 H       
  24 H24            1.2935    -4.0992    -0.1495 H       
  25 H25            1.5198    -2.9156    -1.4596 H       
  26 H26            5.6016    -3.0158     0.3583 H       
  27 H27            2.3817    -4.7987    -1.8047 H       
  28 H28            3.9714    -6.3203    -2.8953 H       
  29 H29            6.5138    -7.4775    -2.1158 H       
  30 H30            6.3112    -6.5733    -3.6323 H       
  31 H31            8.7152    -6.8075    -2.8606 H       
  32 H32            8.1801    -5.1235    -3.0960 H       
  33 H33            8.0671    -6.5568    -0.4030 H       
  34 H34            9.4408    -5.5427    -0.9148 H       
  35 H35            7.6941    -4.3199     0.4576 H       
  36 H36            8.0159    -3.6005    -1.1352 H       
@<TRIPOS>BOND
   1    1    3 1
   2    1   19 1
   3    1   20 1
   4    2    3 1
   5    2    6 1
   6    3    4 2
   7    4    5 1
   8    5    6 1
   9    5   21 1
  10    5   22 1
  11    6    7 1
  12    6   23 1
  13    7    8 1
  14    7   24 1
  15    7   25 1
  16    8   10 1
  17    9   10 ar
  18    9   18 ar
  19    9   26 1
  20   10   11 ar
  21   11   12 ar
  22   11   27 1
  23   12   13 ar
  24   12   28 1
  25   13   14 1
  26   13   18 ar
  27   14   15 1
  28   14   29 1
  29   14   30 1
  30   15   16 1
  31   15   31 1
  32   15   32 1
  33   16   17 1
  34   16   33 1
  35   16   34 1
  36   17   18 1
  37   17   35 1
  38   17   36 1

#	End of record

