#	Name: ASD02038676
#	Creating user name:	WinNT
#	Creation time:	15. 06. 2019 20:17

#	Modifying user name:	WinNT
#	Modification time:	15. 06. 2019 20:17

#	Program:	/corina/corina34_cracker 3.40 0067  02.08.2006

@<TRIPOS>MOLECULE
ASD02038676
  35   36    0    0    0
SMALL
NO_CHARGES


@<TRIPOS>ATOM
   1 C1             1.9239     1.4031    -0.9787 C.ar    
   2 C2             1.9483     0.0223    -0.9740 C.ar    
   3 C3             1.2131    -0.6808    -0.0286 C.ar    
   4 N4             1.2365    -2.0800    -0.0214 N.am    
   5 C5             2.4086    -2.7350    -0.1378 C.2     
   6 N6             2.4416    -4.0791    -0.0446 N.am    
   7 C7             3.7157    -4.7911    -0.1712 C.3     
   8 C8             4.3782    -7.6698     3.7733 C.ar    
   9 C9             4.6105    -6.4545     3.1273 C.ar    
  10 C10            4.0475    -6.2090     1.7825 C.2     
  11 Cl11           1.1391     3.8219    -0.0511 Cl      
  12 C12            1.1677     2.0862    -0.0424 C.ar    
  13 N13            4.2736    -5.0344     1.1614 N.am    
  14 C14            4.9061    -7.8923     5.0283 C.ar    
  15 C15            5.6644    -6.9140     5.6466 C.ar    
  16 C16            5.8984    -5.7071     5.0118 C.ar    
  17 C17            5.3763    -5.4718     3.7567 C.ar    
  18 O18            3.3807    -7.0664     1.2370 O.2     
  19 S19            3.8556    -1.8596    -0.4040 S.2     
  20 C20            0.4338     1.3880     0.9004 C.ar    
  21 C21            0.4551     0.0071     0.9098 C.ar    
  22 H22            2.4989     1.9505    -1.7109 H       
  23 H23            2.5384    -0.5103    -1.7052 H       
  24 H24            0.4091    -2.5784     0.0675 H       
  25 H25            1.6218    -4.5751     0.1062 H       
  26 H26            3.5513    -5.7433    -0.6756 H       
  27 H27            4.4130    -4.1877    -0.7523 H       
  28 H28            3.7828    -8.4325     3.2935 H       
  29 H29            4.8058    -4.3501     1.5968 H       
  30 H30            4.7269    -8.8321     5.5293 H       
  31 H31            6.0753    -7.0933     6.6291 H       
  32 H32            6.4905    -4.9474     5.5002 H       
  33 H33            5.5600    -4.5295     3.2621 H       
  34 H34           -0.1556     1.9235     1.6301 H       
  35 H35           -0.1175    -0.5372     1.6461 H       
@<TRIPOS>BOND
   1    1    2 ar
   2    1   12 ar
   3    1   22 1
   4    2    3 ar
   5    2   23 1
   6    3    4 1
   7    3   21 ar
   8    4    5 am
   9    4   24 1
  10    5    6 am
  11    5   19 2
  12    6    7 1
  13    6   25 1
  14    7   13 1
  15    7   26 1
  16    7   27 1
  17    8    9 ar
  18    8   14 ar
  19    8   28 1
  20    9   10 1
  21    9   17 ar
  22   10   18 2
  23   10   13 am
  24   11   12 1
  25   12   20 ar
  26   13   29 1
  27   14   15 ar
  28   14   30 1
  29   15   16 ar
  30   15   31 1
  31   16   17 ar
  32   16   32 1
  33   17   33 1
  34   20   21 ar
  35   20   34 1
  36   21   35 1

#	End of record

