#	Name: ASD01870097
#	Creating user name:	WinNT
#	Creation time:	15. 06. 2019 19:38

#	Modifying user name:	WinNT
#	Modification time:	15. 06. 2019 19:38

#	Program:	/corina/corina34_cracker 3.40 0067  02.08.2006

@<TRIPOS>MOLECULE
ASD01870097
  29   30    0    0    0
SMALL
NO_CHARGES


@<TRIPOS>ATOM
   1 C1            -0.0191     1.4689     0.0348 C.2     
   2 C2            -0.0017    -0.0061     0.0397 C.ar    
   3 C3             1.2179    -0.6962     0.0500 C.ar    
   4 C4             1.2231    -2.0838     0.0550 C.ar    
   5 C5             0.0300    -2.7809     0.0494 C.ar    
   6 C6            -1.1782    -2.1018     0.0391 C.ar    
   7 C7            -1.2010    -0.7227     0.0399 C.ar    
   8 O8             1.0267     2.0893     0.0398 O.2     
   9 N9            -1.1941     2.1288     0.0193 N.am    
  10 O10            2.3889    -0.0104     0.0547 O.3     
  11 C11           -1.2149     3.5232     0.1326 C.ar    
  12 C12           -2.1872     4.2617    -0.5320 C.ar    
  13 C13           -2.2043     5.6387    -0.4177 C.ar    
  14 C14           -1.2554     6.2815     0.3564 C.ar    
  15 C15           -0.2870     5.5494     1.0180 C.ar    
  16 C16           -0.2680     4.1719     0.9135 C.ar    
  17 N17           -1.2763     7.7567     0.4763 N.pl3   
  18 O18           -2.1285     8.4031    -0.1063 O.2     
  19 O19           -0.4412     8.3242     1.1576 O.2     
  20 Cl20          -3.3777     3.4554    -1.5046 Cl      
  21 Cl21          -2.6693    -2.9907     0.0321 Cl      
  22 Cl22           2.7303    -2.9451     0.0678 Cl      
  23 H23            0.0390    -3.8608     0.0526 H       
  24 H24           -2.1446    -0.1975     0.0361 H       
  25 H25           -2.0254     1.6371    -0.0704 H       
  26 H26            2.7227     0.1918     0.9394 H       
  27 H27           -2.9592     6.2135    -0.9336 H       
  28 H28            0.4527     6.0547     1.6213 H       
  29 H29            0.4860     3.6007     1.4346 H       
@<TRIPOS>BOND
   1    1    2 1
   2    1    8 2
   3    1    9 am
   4    2    3 ar
   5    2    7 ar
   6    3    4 ar
   7    3   10 1
   8    4    5 ar
   9    4   22 1
  10    5    6 ar
  11    5   23 1
  12    6    7 ar
  13    6   21 1
  14    7   24 1
  15    9   11 1
  16    9   25 1
  17   10   26 1
  18   11   12 ar
  19   11   16 ar
  20   12   13 ar
  21   12   20 1
  22   13   14 ar
  23   13   27 1
  24   14   15 ar
  25   14   17 1
  26   15   16 ar
  27   15   28 1
  28   16   29 1
  29   17   18 2
  30   17   19 2

#	End of record

