#	Name: ASD02408253
#	Creating user name:	WinNT
#	Creation time:	15. 06. 2019 20:21

#	Modifying user name:	WinNT
#	Modification time:	15. 06. 2019 20:21

#	Program:	/corina/corina34_cracker 3.40 0067  02.08.2006

@<TRIPOS>MOLECULE
ASD02408253
  45   48    0    0    0
SMALL
NO_CHARGES


@<TRIPOS>ATOM
   1 C1             0.6149     1.3645    -1.0566 C.2     
   2 C2             0.5811     0.0118    -1.1608 C.2     
   3 N3             1.6062    -0.7438    -0.7077 N.pl3   
   4 N4             2.6561    -0.2512    -0.1615 N.2     
   5 C5             2.8172     1.0435     0.0009 C.2     
   6 C6             1.7556     1.9526    -0.4602 C.2     
   7 C7             1.5167    -2.1332    -0.8411 C.ar    
   8 C8             0.3564    -2.7957    -0.4613 C.ar    
   9 C9             0.2714    -4.1678    -0.5944 C.ar    
  10 C10            1.3399    -4.8820    -1.1045 C.ar    
  11 C11            2.4970    -4.2256    -1.4832 C.ar    
  12 C12            2.5862    -2.8533    -1.3591 C.ar    
  13 C13            4.0427     1.5766     0.6358 C.2     
  14 C14            5.1060     0.8376     1.1299 C.2     
  15 N15            6.0261     1.7216     1.6288 N.pl3   
  16 C16            5.5594     2.9916     1.4563 C.2     
  17 C17            4.3579     2.9403     0.8500 C.2     
  18 C18            5.2254    -0.6337     1.1203 C.ar    
  19 O19            1.8551     3.1640    -0.3338 O.2     
  20 C20            6.3311    -1.2441     0.5236 C.ar    
  21 C21            4.2361    -1.4218     1.7128 C.ar    
  22 C22            4.3541    -2.7960     1.7001 C.ar    
  23 C23            5.4496    -3.3941     1.1026 C.ar    
  24 C24            6.4361    -2.6193     0.5183 C.ar    
  25 C25           -0.9870    -4.8874    -0.1826 C.3     
  26 F26           -1.8383    -5.0069    -1.2864 F       
  27 F27           -0.6608    -6.1613     0.2948 F       
  28 F28           -1.6303    -4.1620     0.8260 F       
  29 C29            7.3042     1.3612     2.2474 C.3     
  30 H30           -0.2000     1.9724    -1.4209 H       
  31 H31           -0.2758    -0.4671    -1.6112 H       
  32 H32           -0.4782    -2.2385    -0.0622 H       
  33 H33            1.2709    -5.9549    -1.2071 H       
  34 H34            3.3298    -4.7865    -1.8810 H       
  35 H35            3.4899    -2.3414    -1.6550 H       
  36 H36            6.0731     3.8937     1.7540 H       
  37 H37            3.7425     3.7864     0.5821 H       
  38 H38            7.1018    -0.6406     0.0673 H       
  39 H39            3.3809    -0.9563     2.1801 H       
  40 H40            3.5899    -3.4066     2.1578 H       
  41 H41            5.5371    -4.4705     1.0958 H       
  42 H42            7.2883    -3.0928     0.0535 H       
  43 H43            8.0783     1.3149     1.4815 H       
  44 H44            7.5727     2.1120     2.9905 H       
  45 H45            7.2125     0.3884     2.7306 H       
@<TRIPOS>BOND
   1    1    2 2
   2    1    6 1
   3    1   30 1
   4    2    3 1
   5    2   31 1
   6    3    4 1
   7    3    7 1
   8    4    5 2
   9    5    6 1
  10    5   13 1
  11    6   19 2
  12    7    8 ar
  13    7   12 ar
  14    8    9 ar
  15    8   32 1
  16    9   10 ar
  17    9   25 1
  18   10   11 ar
  19   10   33 1
  20   11   12 ar
  21   11   34 1
  22   12   35 1
  23   13   14 2
  24   13   17 1
  25   14   15 1
  26   14   18 1
  27   15   16 1
  28   15   29 1
  29   16   17 2
  30   16   36 1
  31   17   37 1
  32   18   20 ar
  33   18   21 ar
  34   20   24 ar
  35   20   38 1
  36   21   22 ar
  37   21   39 1
  38   22   23 ar
  39   22   40 1
  40   23   24 ar
  41   23   41 1
  42   24   42 1
  43   25   26 1
  44   25   27 1
  45   25   28 1
  46   29   43 1
  47   29   44 1
  48   29   45 1

#	End of record

