#	Name: ASD01700022
#	Creating user name:	WinNT
#	Creation time:	15. 06. 2019 19:22

#	Modifying user name:	WinNT
#	Modification time:	15. 06. 2019 19:22

#	Program:	/corina/corina34_cracker 3.40 0067  02.08.2006

@<TRIPOS>MOLECULE
ASD01700022
  56   60    0    0    0
SMALL
NO_CHARGES


@<TRIPOS>ATOM
   1 Cl1           -2.4728     4.2626     0.8040 Cl      
   2 Cl2            0.6353    -0.1545     0.9274 Cl      
   3 C3             0.4794     1.5694     0.7953 C.ar    
   4 C4             1.6063     2.3549     0.6399 C.ar    
   5 C5             1.4810     3.7333     0.5343 C.ar    
   6 C6             0.2239     4.3197     0.5850 C.ar    
   7 C7            -0.9002     3.5300     0.7405 C.ar    
   8 C8            -0.7732     2.1557     0.8398 C.ar    
   9 N9             2.6225     4.5321     0.3771 N.am    
  10 C10            3.8786     4.0693     0.4281 C.2     
  11 N11            4.7930     5.0441     0.2465 N.am    
  12 C12            4.0363     6.2807     0.0560 C.3     
  13 C13            2.5925     5.8636     0.1497 C.2     
  14 O14            1.6134     6.5710     0.0458 O.2     
  15 C15            4.3910     7.3291     1.1179 C.3     
  16 N16            4.3098     8.6277     0.3960 N.3     
  17 C17            4.8724     8.3379    -0.9491 C.3     
  18 C18            4.3417     6.9283    -1.2991 C.3     
  19 C19            5.3941     6.1382    -2.0334 C.ar    
  20 C20            5.1374     4.8315    -2.4087 C.ar    
  21 C21            6.0961     4.1027    -3.0815 C.ar    
  22 C22            7.3279     4.6867    -3.3836 C.ar    
  23 C23            7.5803     6.0059    -3.0018 C.ar    
  24 C24            6.6106     6.7248    -2.3342 C.ar    
  25 C25            8.3280     3.9360    -4.0814 C.1     
  26 N26            9.1213     3.3404    -4.6349 N.1     
  27 C27            5.0493     9.6023     1.0436 C.ar    
  28 N28            5.7025     9.2959     2.1562 N.ar    
  29 C29            6.4185    10.1900     2.8054 C.ar    
  30 C30            6.5111    11.5013     2.3349 C.ar    
  31 C31            5.8294    11.8532     1.1589 C.ar    
  32 C32            5.1014    10.8909     0.5137 C.ar    
  33 C33            7.3125    12.5018     3.0625 C.2     
  34 O34            7.3870    13.6406     2.6452 O.2     
  35 O35            7.9624    12.1537     4.1904 O.3     
  36 C36            6.2503     4.8943     0.2415 C.3     
  37 O37            4.1623     2.9027     0.6172 O.2     
  38 H38            2.5835     1.8965     0.6011 H       
  39 H39            0.1240     5.3919     0.5034 H       
  40 H40           -1.6528     1.5400     0.9564 H       
  41 H41            3.6706     7.3020     1.9355 H       
  42 H42            5.4010     7.1645     1.4934 H       
  43 H43            4.5168     9.0689    -1.6753 H       
  44 H44            5.9618     8.3357    -0.9130 H       
  45 H45            3.4340     7.0020    -1.8980 H       
  46 H46            4.1843     4.3809    -2.1741 H       
  47 H47            5.8945     3.0827    -3.3736 H       
  48 H48            8.5311     6.4635    -3.2321 H       
  49 H49            6.8030     7.7466    -2.0419 H       
  50 H50            6.9379     9.9070     3.7090 H       
  51 H51            5.8818    12.8594     0.7702 H       
  52 H52            4.5690    11.1282    -0.3955 H       
  53 H53            8.4752    12.8441     4.6325 H       
  54 H54            6.5108     3.8677     0.4993 H       
  55 H55            6.6363     5.1289    -0.7505 H       
  56 H56            6.6880     5.5746     0.9720 H       
@<TRIPOS>BOND
   1    1    7 1
   2    2    3 1
   3    3    4 ar
   4    3    8 ar
   5    4    5 ar
   6    4   38 1
   7    5    6 ar
   8    5    9 1
   9    6    7 ar
  10    6   39 1
  11    7    8 ar
  12    8   40 1
  13    9   10 am
  14    9   13 am
  15   10   11 am
  16   10   37 2
  17   11   12 1
  18   11   36 1
  19   12   13 1
  20   12   15 1
  21   12   18 1
  22   13   14 2
  23   15   16 1
  24   15   41 1
  25   15   42 1
  26   16   17 1
  27   16   27 1
  28   17   18 1
  29   17   43 1
  30   17   44 1
  31   18   19 1
  32   18   45 1
  33   19   20 ar
  34   19   24 ar
  35   20   21 ar
  36   20   46 1
  37   21   22 ar
  38   21   47 1
  39   22   23 ar
  40   22   25 1
  41   23   24 ar
  42   23   48 1
  43   24   49 1
  44   25   26 3
  45   27   28 ar
  46   27   32 ar
  47   28   29 ar
  48   29   30 ar
  49   29   50 1
  50   30   31 ar
  51   30   33 1
  52   31   32 ar
  53   31   51 1
  54   32   52 1
  55   33   34 2
  56   33   35 1
  57   35   53 1
  58   36   54 1
  59   36   55 1
  60   36   56 1

#	End of record

