#	Name: ASD03430033
#	Creating user name:	WinNT
#	Creation time:	15. 06. 2019 20:40

#	Modifying user name:	WinNT
#	Modification time:	15. 06. 2019 20:40

#	Program:	/corina/corina34_cracker 3.40 0067  02.08.2006

@<TRIPOS>MOLECULE
ASD03430033
  46   51    0    0    0
SMALL
NO_CHARGES


@<TRIPOS>ATOM
   1 C1             0.9068     0.8459    -1.0415 C.ar    
   2 C2             0.8198    -0.5136    -0.7839 C.ar    
   3 C3             1.9384    -1.2189    -0.3936 C.ar    
   4 C4             3.1639    -0.5772    -0.2424 C.ar    
   5 C5             3.2484     0.7864    -0.5050 C.ar    
   6 C6             2.1274     1.4959    -0.9019 C.ar    
   7 O7             4.1286    -1.4463     0.1751 O.3     
   8 C8             2.1717    -2.6705    -0.0707 C.3     
   9 C9             3.7012    -2.7955    -0.0936 C.3     
  10 C10            0.7122    -4.0988     1.0002 C.ar    
  11 C11            1.5974    -3.0579     1.2595 C.ar    
  12 C12            1.5218    -3.5874    -1.0667 C.2     
  13 N13            0.6906    -4.3856    -0.3672 N.am    
  14 O14            1.7078    -3.6059    -2.2650 O.2     
  15 C15            1.7847    -2.5982     2.5551 C.ar    
  16 C16            1.0800    -3.1834     3.6070 C.ar    
  17 C17            0.2012    -4.2166     3.3505 C.ar    
  18 C18            0.0153    -4.6736     2.0612 C.ar    
  19 C19           -0.1384    -5.4321    -0.9704 C.3     
  20 O20           -0.2060     1.5254    -1.4339 O.3     
  21 C21           -0.1589     2.9525    -1.3296 C.3     
  22 C22            1.1801     3.4319    -1.9064 C.3     
  23 O23            2.2357     2.8306    -1.1493 O.3     
  24 C24            2.7325    -1.4874     2.8211 C.2     
  25 C25            3.8421    -1.5371     3.6862 C.2     
  26 C26            4.4500    -0.3241     3.6514 C.2     
  27 N27            3.7511     0.4648     2.7958 N.pl3   
  28 N28            2.6852    -0.2866     2.2849 N.2     
  29 O29            5.5584     0.0358     4.3477 O.3     
  30 H30           -0.1274    -1.0218    -0.8889 H       
  31 H31            4.1950     1.2953    -0.3985 H       
  32 H32            4.0480    -3.1234    -1.0735 H       
  33 H33            4.0459    -3.4735     0.6871 H       
  34 H34            1.2215    -2.8299     4.6176 H       
  35 H35           -0.3450    -4.6704     4.1642 H       
  36 H36           -0.6753    -5.4824     1.8734 H       
  37 H37           -1.1052    -5.0137    -1.2501 H       
  38 H38            0.3589    -5.8231    -1.8580 H       
  39 H39           -0.2857    -6.2383    -0.2517 H       
  40 H40           -0.9810     3.3900    -1.8961 H       
  41 H41           -0.2350     3.2474    -0.2830 H       
  42 H42            1.2596     3.1301    -2.9508 H       
  43 H43            1.2454     4.5173    -1.8309 H       
  44 H44            4.1537    -2.3885     4.2731 H       
  45 H45            3.9562     1.3866     2.5742 H       
  46 H46            6.3883    -0.1340     3.8812 H       
@<TRIPOS>BOND
   1    1    2 ar
   2    1    6 ar
   3    1   20 1
   4    2    3 ar
   5    2   30 1
   6    3    4 ar
   7    3    8 1
   8    4    5 ar
   9    4    7 1
  10    5    6 ar
  11    5   31 1
  12    6   23 1
  13    7    9 1
  14    8    9 1
  15    8   11 1
  16    8   12 1
  17    9   32 1
  18    9   33 1
  19   10   11 ar
  20   10   13 1
  21   10   18 ar
  22   11   15 ar
  23   12   13 am
  24   12   14 2
  25   13   19 1
  26   15   16 ar
  27   15   24 1
  28   16   17 ar
  29   16   34 1
  30   17   18 ar
  31   17   35 1
  32   18   36 1
  33   19   37 1
  34   19   38 1
  35   19   39 1
  36   20   21 1
  37   21   22 1
  38   21   40 1
  39   21   41 1
  40   22   23 1
  41   22   42 1
  42   22   43 1
  43   24   25 1
  44   24   28 2
  45   25   26 2
  46   25   44 1
  47   26   27 1
  48   26   29 1
  49   27   28 1
  50   27   45 1
  51   29   46 1

#	End of record

