#	Name: ASD05430303
#	Creating user name:	WinNT
#	Creation time:	15. 06. 2019 21:00

#	Modifying user name:	WinNT
#	Modification time:	15. 06. 2019 21:00

#	Program:	/corina/corina34_cracker 3.40 0067  02.08.2006

@<TRIPOS>MOLECULE
ASD05430303
  65   70    0    0    0
SMALL
NO_CHARGES


@<TRIPOS>ATOM
   1 C1            -0.0015     1.4212     0.1884 C.ar    
   2 C2             0.0097     0.0420    -0.0159 C.ar    
   3 C3             1.2153    -0.6329    -0.1561 C.ar    
   4 C4             2.4065     0.0572    -0.0941 C.ar    
   5 C5             2.4031     1.4409     0.1106 C.ar    
   6 C6             1.1893     2.1203     0.2518 C.ar    
   7 O7             4.9113     0.1384     0.3098 O.3     
   8 C8             4.8449     1.5082     0.1965 C.2     
   9 C9             3.6741     2.1797     0.1777 C.2     
  10 C10            5.9656    -0.3505     1.1500 C.3     
  11 C11            7.3834     0.0924     0.7572 C.3     
  12 N12            7.3346     1.5219     0.4519 N.pl3   
  13 C13            6.1584     2.1907     0.0970 C.2     
  14 C14            8.3959     2.5259     0.4601 C.3     
  15 O15            7.8277     3.6112    -0.3037 O.3     
  16 N16            6.4245     3.3839    -0.3111 N.2     
  17 C17            8.6993     2.9680     1.8684 C.ar    
  18 C18            9.6550     1.9867    -0.2217 C.3     
  19 N19           -1.1995    -0.6654    -0.0794 N.pl3   
  20 C20           -1.5722    -1.5560    -1.0525 C.2     
  21 C21           -2.8014    -1.9991    -0.7257 C.2     
  22 N22           -3.1733    -1.3988     0.4145 N.2     
  23 C23           -2.2198    -0.6020     0.8147 C.2     
  24 C24           -3.6178    -2.9965    -1.5064 C.3     
  25 C25            8.4189     2.1300     2.9315 C.ar    
  26 C26            8.6972     2.5356     4.2234 C.ar    
  27 C27            9.2564     3.7789     4.4522 C.ar    
  28 C28            9.5377     4.6165     3.3891 C.ar    
  29 C29            9.2634     4.2092     2.0969 C.ar    
  30 O30           10.7104     2.9420    -0.0970 O.3     
  31 C31           -1.1205     3.4919     0.5267 C.3     
  32 O32           -1.1838     2.0794     0.3197 O.3     
  33 C33            5.6654    -0.5080     2.6402 C.3     
  34 C34            5.8034    -1.7458     1.7508 C.3     
  35 S35            9.6197     4.3103     6.1438 Du      
  36 F36           11.0607     4.8464     5.6659 F       
  37 F37            8.1787     3.7743     6.6217 F       
  38 F38           10.2610     2.8677     6.4593 F       
  39 F39            9.9429     4.7831     7.6485 F       
  40 F40            8.9784     5.7530     5.8283 F       
  41 H41            1.2193    -1.7014    -0.3138 H       
  42 H42            3.3425    -0.4704    -0.2031 H       
  43 H43            1.1821     3.1886     0.4096 H       
  44 H44            3.6701     3.2592     0.2119 H       
  45 H45            8.0688    -0.0851     1.5860 H       
  46 H46            7.7135    -0.4619    -0.1213 H       
  47 H47            9.9532     1.0518     0.2530 H       
  48 H48            9.4488     1.8087    -1.2771 H       
  49 H49           -0.9917    -1.8466    -1.9156 H       
  50 H50           -2.2418     0.0109     1.7036 H       
  51 H51           -3.3946    -4.0037    -1.1544 H       
  52 H52           -4.6783    -2.7886    -1.3643 H       
  53 H53           -3.3710    -2.9187    -2.5653 H       
  54 H54            7.9820     1.1586     2.7527 H       
  55 H55            8.4774     1.8812     5.0540 H       
  56 H56            9.9743     5.5880     3.5679 H       
  57 H57            9.4832     4.8635     1.2663 H       
  58 H58           11.5413     2.6659    -0.5074 H       
  59 H59           -0.6166     3.9608    -0.3184 H       
  60 H60           -2.1307     3.8918     0.6149 H       
  61 H61           -0.5661     3.7005     1.4417 H       
  62 H62            6.4735    -0.2992     3.3413 H       
  63 H63            4.6651    -0.2434     2.9829 H       
  64 H64            4.8939    -2.2955     1.5086 H       
  65 H65            6.7023    -2.3513     1.8670 H       
@<TRIPOS>BOND
   1    1    2 ar
   2    1    6 ar
   3    1   32 1
   4    2    3 ar
   5    2   19 1
   6    3    4 ar
   7    3   41 1
   8    4    5 ar
   9    4   42 1
  10    5    6 ar
  11    5    9 1
  12    6   43 1
  13    7    8 1
  14    7   10 1
  15    8    9 2
  16    8   13 1
  17    9   44 1
  18   10   11 1
  19   10   33 1
  20   10   34 1
  21   11   12 1
  22   11   45 1
  23   11   46 1
  24   12   13 1
  25   12   14 1
  26   13   16 2
  27   14   15 1
  28   14   17 1
  29   14   18 1
  30   15   16 1
  31   17   25 ar
  32   17   29 ar
  33   18   30 1
  34   18   47 1
  35   18   48 1
  36   19   20 1
  37   19   23 1
  38   20   21 2
  39   20   49 1
  40   21   22 1
  41   21   24 1
  42   22   23 2
  43   23   50 1
  44   24   51 1
  45   24   52 1
  46   24   53 1
  47   25   26 ar
  48   25   54 1
  49   26   27 ar
  50   26   55 1
  51   27   28 ar
  52   27   35 1
  53   28   29 ar
  54   28   56 1
  55   29   57 1
  56   30   58 1
  57   31   32 1
  58   31   59 1
  59   31   60 1
  60   31   61 1
  61   33   34 1
  62   33   62 1
  63   33   63 1
  64   34   64 1
  65   34   65 1
  66   35   36 1
  67   35   37 1
  68   35   38 1
  69   35   39 1
  70   35   40 1

#	End of record

