#	Name: ASD08150977
#	Creating user name:	WinNT
#	Creation time:	15. 06. 2019 21:16

#	Modifying user name:	WinNT
#	Modification time:	15. 06. 2019 21:16

#	Program:	/corina/corina34_cracker 3.40 0067  02.08.2006

@<TRIPOS>MOLECULE
ASD08150977
  62   67    0    0    0
SMALL
NO_CHARGES


@<TRIPOS>ATOM
   1 N1            -0.4834     1.6941    -0.1095 N.2     
   2 C2            -0.4876     0.3982    -0.2283 C.2     
   3 N3             0.7812    -0.0546    -0.4367 N.pl3   
   4 C4             1.6114     1.0377    -0.4451 C.ar    
   5 N5             2.9183     1.2219    -0.6002 N.ar    
   6 C6             3.4352     2.4319    -0.5571 C.ar    
   7 N7             2.6991     3.5104    -0.3606 N.ar    
   8 C8             1.3831     3.4249    -0.1952 C.ar    
   9 C9             0.7847     2.1542    -0.2337 C.ar    
  10 N10            0.6201     4.5609     0.0106 N.pl3   
  11 C11            1.2617     5.8774     0.0481 C.3     
  12 C12            1.4880     6.3754    -1.3808 C.3     
  13 N13            0.6205     9.8648     2.7976 N.ar    
  14 C14           -0.1468    10.7121     3.4394 C.ar    
  15 C15           -1.5322    10.5682     3.4692 C.ar    
  16 C16           -2.1230     9.5232     2.8177 C.ar    
  17 C17           -1.2956     8.6162     2.1294 C.ar    
  18 C18           -1.8336     7.5177     1.4365 C.ar    
  19 C19           -1.0044     6.6565     0.7801 C.ar    
  20 C20            0.3741     6.8481     0.7837 C.ar    
  21 C21            0.9378     7.9132     1.4512 C.ar    
  22 C22            0.1059     8.8218     2.1404 C.ar    
  23 N23            2.3226     8.0928     1.4461 N.3     
  24 C24            2.8755     7.9607     2.8006 C.3     
  25 C25            4.4061     7.9831     2.7284 C.3     
  26 N26            4.8219     9.1926     2.0020 N.am    
  27 C27            4.2064     9.4651     0.6943 C.3     
  28 C28            2.6837     9.3844     0.8467 C.3     
  29 C29            5.7428    10.0288     2.5209 C.2     
  30 O30            6.2941     9.7515     3.5686 O.2     
  31 N31            6.5408    12.7266     0.2327 N.pl3   
  32 N32            6.5830    13.3919     1.4631 N.2     
  33 C33            6.3113    12.5404     2.4133 C.2     
  34 C34            6.0817    11.2797     1.8181 C.2     
  35 C35            6.2345    11.4385     0.4553 C.2     
  36 C36            6.7836    13.3345    -1.0779 C.3     
  37 F37           -3.1692     7.3145     1.4223 F       
  38 H38           -1.3667    -0.2265    -0.1700 H       
  39 H39            1.0481    -0.9793    -0.5567 H       
  40 H40            4.5012     2.5467    -0.6869 H       
  41 H41           -0.3396     4.4855     0.1300 H       
  42 H42            2.2199     5.8001     0.5619 H       
  43 H43            0.5419     6.3685    -1.9220 H       
  44 H44            1.8835     7.3907    -1.3534 H       
  45 H45            2.1998     5.7217    -1.8849 H       
  46 H46            0.3069    11.5431     3.9590 H       
  47 H47           -2.1383    11.2821     4.0071 H       
  48 H48           -3.1954     9.3962     2.8306 H       
  49 H49           -1.4235     5.8144     0.2495 H       
  50 H50            2.5284     8.7895     3.4176 H       
  51 H51            2.5458     7.0183     3.2378 H       
  52 H52            4.8200     8.0010     3.7365 H       
  53 H53            4.7606     7.0984     2.1996 H       
  54 H54            4.4883    10.4627     0.3577 H       
  55 H55            4.5417     8.7228    -0.0300 H       
  56 H56            2.2148     9.4744    -0.1332 H       
  57 H57            2.3392    10.1933     1.4908 H       
  58 H58            6.2696    12.7604     3.4698 H       
  59 H59            6.1271    10.6682    -0.2940 H       
  60 H60            7.8444    13.2662    -1.3192 H       
  61 H61            6.2039    12.8077    -1.8358 H       
  62 H62            6.4832    14.3821    -1.0538 H       
@<TRIPOS>BOND
   1    1    2 2
   2    1    9 1
   3    2    3 1
   4    2   38 1
   5    3    4 1
   6    3   39 1
   7    4    5 ar
   8    4    9 ar
   9    5    6 ar
  10    6    7 ar
  11    6   40 1
  12    7    8 ar
  13    8    9 ar
  14    8   10 1
  15   10   11 1
  16   10   41 1
  17   11   12 1
  18   11   20 1
  19   11   42 1
  20   12   43 1
  21   12   44 1
  22   12   45 1
  23   13   14 ar
  24   13   22 ar
  25   14   15 ar
  26   14   46 1
  27   15   16 ar
  28   15   47 1
  29   16   17 ar
  30   16   48 1
  31   17   18 ar
  32   17   22 ar
  33   18   19 ar
  34   18   37 1
  35   19   20 ar
  36   19   49 1
  37   20   21 ar
  38   21   22 ar
  39   21   23 1
  40   23   24 1
  41   23   28 1
  42   24   25 1
  43   24   50 1
  44   24   51 1
  45   25   26 1
  46   25   52 1
  47   25   53 1
  48   26   27 1
  49   26   29 am
  50   27   28 1
  51   27   54 1
  52   27   55 1
  53   28   56 1
  54   28   57 1
  55   29   30 2
  56   29   34 1
  57   31   32 1
  58   31   35 1
  59   31   36 1
  60   32   33 2
  61   33   34 1
  62   33   58 1
  63   34   35 2
  64   35   59 1
  65   36   60 1
  66   36   61 1
  67   36   62 1

#	End of record

