#	Name: ASD01814290
#	Creating user name:	WinNT
#	Creation time:	15. 06. 2019 19:32

#	Modifying user name:	WinNT
#	Modification time:	15. 06. 2019 19:32

#	Program:	/corina/corina34_cracker 3.40 0067  02.08.2006

@<TRIPOS>MOLECULE
ASD01814290
  56   61    0    0    0
SMALL
NO_CHARGES


@<TRIPOS>ATOM
   1 C1            -0.0168     1.3868     0.0097 C.ar    
   2 C2             0.0021    -0.0041     0.0020 C.ar    
   3 C3             1.1802    -0.6897    -0.0125 C.ar    
   4 C4             2.3948     0.0129    -0.0204 C.ar    
   5 C5             2.3717     1.4289    -0.0130 C.ar    
   6 C6             1.1457     2.1013     0.0024 C.ar    
   7 C7             3.6295    -0.6696    -0.0358 C.ar    
   8 C8             4.8033     0.0056    -0.0435 C.ar    
   9 C9             4.8366     1.4091    -0.0368 C.ar    
  10 C10            3.6408     2.1511    -0.0213 C.ar    
  11 C11            6.1027     2.1513    -0.0450 C.2     
  12 N12            6.0335     3.5028    -0.0376 N.am    
  13 C13            4.8313     4.1306    -0.0231 C.2     
  14 N14            3.6963     3.4927    -0.0156 N.2     
  15 C15            3.6422    -2.1765    -0.0435 C.3     
  16 C16            3.5088    -2.6728    -1.4602 C.ar    
  17 C17            4.6402    -2.8894    -2.2250 C.ar    
  18 C18            4.5205    -3.3443    -3.5239 C.ar    
  19 C19            3.2639    -3.5838    -4.0608 C.ar    
  20 C20            2.1304    -3.3657    -3.2913 C.ar    
  21 C21            2.2556    -2.9161    -1.9911 C.ar    
  22 O22            7.1748     1.5729    -0.0576 O.2     
  23 C23            7.2185     4.2629    -0.0445 C.2     
  24 C24            7.9051     4.6914     1.0510 C.2     
  25 N25            8.9866     5.3898     0.6061 N.pl3   
  26 N26            8.9601     5.3872    -0.7886 N.2     
  27 C27            7.9087     4.7106    -1.1812 C.2     
  28 N28            7.5937     4.4765     2.3912 N.3     
  29 C29            8.7709     4.7171     3.2401 C.3     
  30 C30            9.3822     6.0795     2.8985 C.3     
  31 C31            9.9797     6.0178     1.4852 C.3     
  32 O32            3.1436    -4.0309    -5.3385 O.3     
  33 C33            1.8190    -4.2560    -5.8250 C.3     
  34 H34           -0.9630     1.9075     0.0170 H       
  35 H35           -0.9305    -0.5488     0.0080 H       
  36 H36            1.1788    -1.7697    -0.0176 H       
  37 H37            1.1190     3.1810     0.0085 H       
  38 H38            5.7317    -0.5462    -0.0546 H       
  39 H39            4.8148     5.2104    -0.0172 H       
  40 H40            4.5809    -2.5341     0.3799 H       
  41 H41            2.8093    -2.5500     0.5522 H       
  42 H42            5.6182    -2.7025    -1.8067 H       
  43 H43            5.4045    -3.5130    -4.1210 H       
  44 H44            1.1510    -3.5514    -3.7070 H       
  45 H45            1.3734    -2.7465    -1.3915 H       
  46 H46            7.6186     4.5337    -2.2064 H       
  47 H47            6.8168     5.0525     2.6788 H       
  48 H48            8.4709     4.7065     4.2879 H       
  49 H49            9.5093     3.9343     3.0666 H       
  50 H50            8.6082     6.8461     2.9345 H       
  51 H51           10.1672     6.3175     3.6163 H       
  52 H52           10.8927     5.4225     1.4960 H       
  53 H53           10.1994     7.0257     1.1329 H       
  54 H54            1.8655    -4.6102    -6.8548 H       
  55 H55            1.3265    -5.0051    -5.2050 H       
  56 H56            1.2546    -3.3243    -5.7864 H       
@<TRIPOS>BOND
   1    1    2 ar
   2    1    6 ar
   3    1   34 1
   4    2    3 ar
   5    2   35 1
   6    3    4 ar
   7    3   36 1
   8    4    5 ar
   9    4    7 ar
  10    5    6 ar
  11    5   10 ar
  12    6   37 1
  13    7    8 ar
  14    7   15 1
  15    8    9 ar
  16    8   38 1
  17    9   10 ar
  18    9   11 1
  19   10   14 1
  20   11   12 am
  21   11   22 2
  22   12   13 1
  23   12   23 1
  24   13   14 2
  25   13   39 1
  26   15   16 1
  27   15   40 1
  28   15   41 1
  29   16   17 ar
  30   16   21 ar
  31   17   18 ar
  32   17   42 1
  33   18   19 ar
  34   18   43 1
  35   19   20 ar
  36   19   32 1
  37   20   21 ar
  38   20   44 1
  39   21   45 1
  40   23   24 2
  41   23   27 1
  42   24   25 1
  43   24   28 1
  44   25   26 1
  45   25   31 1
  46   26   27 2
  47   27   46 1
  48   28   29 1
  49   28   47 1
  50   29   30 1
  51   29   48 1
  52   29   49 1
  53   30   31 1
  54   30   50 1
  55   30   51 1
  56   31   52 1
  57   31   53 1
  58   32   33 1
  59   33   54 1
  60   33   55 1
  61   33   56 1

#	End of record

