#	Name: ASD01911995
#	Creating user name:	WinNT
#	Creation time:	15. 06. 2019 19:58

#	Modifying user name:	WinNT
#	Modification time:	15. 06. 2019 19:58

#	Program:	/corina/corina34_cracker 3.40 0067  02.08.2006

@<TRIPOS>MOLECULE
ASD01911995
  40   42    0    0    0
SMALL
NO_CHARGES


@<TRIPOS>ATOM
   1 C1            -1.4289     1.2134     1.7175 C.ar    
   2 C2            -1.3524    -0.1697     1.5719 C.ar    
   3 C3            -1.5149    -0.9620     2.7059 C.ar    
   4 N4            -1.7343    -0.3764     3.8713 N.ar    
   5 C5            -1.7998     0.9365     3.9674 C.ar    
   6 N6            -1.6514     1.7206     2.9185 N.ar    
   7 N7            -1.1192    -0.7475     0.3207 N.pl3   
   8 C8            -1.0194    -2.1357     0.2000 C.ar    
   9 C9             0.3002    -4.0940    -0.2373 C.ar    
  10 C10           -0.8136    -4.8901    -0.0411 C.ar    
  11 C11           -2.0370    -4.3107     0.2710 C.ar    
  12 C12           -2.1398    -2.9319     0.3917 C.ar    
  13 N13           -3.1627    -5.1164     0.4692 N.am    
  14 C14           -4.3833    -4.6674     0.1157 C.2     
  15 C15           -5.5841    -5.4748     0.4187 C.ar    
  16 O16           -4.4969    -3.5987    -0.4521 O.2     
  17 C17           -5.4553    -6.7031     1.0711 C.ar    
  18 C18            0.2008    -2.7203    -0.1178 C.ar    
  19 C19           -0.9795     0.1028    -0.8642 C.3     
  20 C20           -6.5758    -7.4589     1.3546 C.ar    
  21 C21           -7.8299    -7.0071     0.9958 C.ar    
  22 C22           -7.9734    -5.7800     0.3425 C.ar    
  23 C23           -6.8473    -5.0095     0.0591 C.ar    
  24 C24           -9.2749    -5.3128    -0.0295 C.1     
  25 Cl25           1.8273    -4.8215    -0.6273 Cl      
  26 N26          -10.3074    -4.9422    -0.3246 N.1     
  27 H27           -1.3039     1.8622     0.8631 H       
  28 H28           -1.4628    -2.0383     2.6346 H       
  29 H29           -1.9803     1.3829     4.9341 H       
  30 H30           -0.7323    -5.9632    -0.1312 H       
  31 H31           -3.0899    -2.4795     0.6346 H       
  32 H32           -3.0650    -5.9983     0.8609 H       
  33 H33           -4.4771    -7.0627     1.3543 H       
  34 H34            1.0721    -2.1009    -0.2718 H       
  35 H35            0.0683     0.3724    -0.9963 H       
  36 H36           -1.3290    -0.4388    -1.7432 H       
  37 H37           -1.5739     1.0072    -0.7345 H       
  38 H38           -6.4704    -8.4081     1.8589 H       
  39 H39           -8.7020    -7.6033     1.2201 H       
  40 H40           -6.9524    -4.0604    -0.4456 H       
@<TRIPOS>BOND
   1    1    2 ar
   2    1    6 ar
   3    1   27 1
   4    2    3 ar
   5    2    7 1
   6    3    4 ar
   7    3   28 1
   8    4    5 ar
   9    5    6 ar
  10    5   29 1
  11    7    8 1
  12    7   19 1
  13    8   18 ar
  14    8   12 ar
  15    9   10 ar
  16    9   25 1
  17    9   18 ar
  18   10   11 ar
  19   10   30 1
  20   11   12 ar
  21   11   13 1
  22   12   31 1
  23   13   14 am
  24   13   32 1
  25   14   15 1
  26   14   16 2
  27   15   17 ar
  28   15   23 ar
  29   17   20 ar
  30   17   33 1
  31   18   34 1
  32   19   35 1
  33   19   36 1
  34   19   37 1
  35   20   21 ar
  36   20   38 1
  37   21   22 ar
  38   21   39 1
  39   22   23 ar
  40   22   24 1
  41   23   40 1
  42   24   26 3

#	End of record

