#	Name: ASD03570006
#	Creating user name:	WinNT
#	Creation time:	15. 06. 2019 20:43

#	Modifying user name:	WinNT
#	Modification time:	15. 06. 2019 20:43

#	Program:	/corina/corina34_cracker 3.40 0067  02.08.2006

@<TRIPOS>MOLECULE
ASD03570006
  28   29    0    0    0
SMALL
NO_CHARGES


@<TRIPOS>ATOM
   1 C1            -0.0168     1.3865     0.0097 C.ar    
   2 C2             0.0021    -0.0041     0.0020 C.ar    
   3 C3             1.1973    -0.6897    -0.0131 C.ar    
   4 C4             2.3984     0.0138    -0.0207 C.ar    
   5 C5             2.3760     1.4224    -0.0130 C.ar    
   6 C6             1.1476     2.0969     0.0024 C.ar    
   7 N7             3.7165    -0.3766    -0.0358 N.pl3   
   8 C8             4.5147     0.7520    -0.0377 C.2     
   9 C9             3.7228     1.8572    -0.0239 C.2     
  10 C10            4.1946     3.2885    -0.0217 C.3     
  11 C11            4.3399     3.7799    -1.4633 C.3     
  12 Cl12          -1.4941    -0.8844     0.0121 Cl      
  13 C13            4.8117     5.2111    -1.4611 C.2     
  14 O14            5.0113     5.7798    -0.4139 O.2     
  15 O15            5.0102     5.8542    -2.6225 O.3     
  16 C16            5.9831     0.7566    -0.0517 C.2     
  17 O17            6.5878     1.8113    -0.0516 O.2     
  18 O18            6.6609    -0.4092    -0.0647 O.3     
  19 H19           -0.9621     1.9087     0.0170 H       
  20 H20            1.2021    -1.7697    -0.0185 H       
  21 H21            1.1230     3.1766     0.0080 H       
  22 H22            4.0341    -1.2931    -0.0434 H       
  23 H23            3.4683     3.9096     0.5024 H       
  24 H24            5.1587     3.3525     0.4829 H       
  25 H25            5.0662     3.1587    -1.9874 H       
  26 H26            3.3758     3.7159    -1.9679 H       
  27 H27            5.3130     6.7710    -2.5704 H       
  28 H28            7.6264    -0.3556    -0.0736 H       
@<TRIPOS>BOND
   1    1    2 ar
   2    1    6 ar
   3    1   19 1
   4    2    3 ar
   5    2   12 1
   6    3    4 ar
   7    3   20 1
   8    4    5 ar
   9    4    7 1
  10    5    6 ar
  11    5    9 1
  12    6   21 1
  13    7    8 1
  14    7   22 1
  15    8    9 2
  16    8   16 1
  17    9   10 1
  18   10   11 1
  19   10   23 1
  20   10   24 1
  21   11   13 1
  22   11   25 1
  23   11   26 1
  24   13   14 2
  25   13   15 1
  26   15   27 1
  27   16   17 2
  28   16   18 1
  29   18   28 1

#	End of record

