#	Name: ASD01912402
#	Creating user name:	WinNT
#	Creation time:	15. 06. 2019 19:59

#	Modifying user name:	WinNT
#	Modification time:	15. 06. 2019 19:59

#	Program:	/corina/corina34_cracker 3.40 0067  02.08.2006

@<TRIPOS>MOLECULE
ASD01912402
  49   51    0    0    0
SMALL
NO_CHARGES


@<TRIPOS>ATOM
   1 C1            -0.0027     1.4095    -0.0607 C.ar    
   2 C2             0.2513     0.5645     1.0151 C.ar    
   3 C3             1.4493    -0.1250     1.0605 C.ar    
   4 C4             2.3569     0.0543     0.0247 C.ar    
   5 C5             2.0396     0.9085    -1.0119 C.ar    
   6 N6             0.8885     1.5537    -1.0291 N.ar    
   7 N7            -0.6625     0.4193     2.0050 N.pl3   
   8 O8            -0.4772    -0.3967     2.8901 O.2     
   9 O9            -1.6693     1.1049     2.0098 O.2     
  10 N10           -1.2051     2.1042    -0.1220 N.3     
  11 C11           -0.9814     3.5526    -0.0301 C.3     
  12 C12           -2.3288     4.2744     0.0457 C.3     
  13 C13           -3.1501     3.9442    -1.2037 C.3     
  14 C14           -3.3275     2.4265    -1.3019 C.3     
  15 C15           -1.9512     1.7582    -1.3386 C.3     
  16 C16           -4.5222     4.6140    -1.1053 C.3     
  17 C17           -4.3501     6.0723    -1.0033 C.1     
  18 C18           -4.2128     7.2355    -0.9220 C.1     
  19 C19           -4.0454     8.6542    -0.8227 C.ar    
  20 C20           -5.1669     9.4783    -0.7218 C.ar    
  21 C21           -4.9885    10.8469    -0.6267 C.ar    
  22 C22           -3.6943    11.3490    -0.6354 C.ar    
  23 C23           -2.6278    10.4751    -0.7381 C.ar    
  24 N24           -2.8238     9.1750    -0.8220 N.ar    
  25 C25           -1.2216    11.0168    -0.7484 C.3     
  26 O26           -5.2878     4.3051    -2.2717 O.3     
  27 C27           -6.6982     4.2603    -2.0462 C.3     
  28 H28            1.6742    -0.7876     1.8832 H       
  29 H29            3.3015    -0.4692     0.0304 H       
  30 H30            2.7425     1.0508    -1.8195 H       
  31 H31           -0.3999     3.7742     0.8647 H       
  32 H32           -0.4363     3.8925    -0.9107 H       
  33 H33           -2.8685     3.9452     0.9335 H       
  34 H34           -2.1627     5.3504     0.0981 H       
  35 H35           -2.6288     4.3080    -2.0891 H       
  36 H36           -3.8830     2.0682    -0.4352 H       
  37 H37           -3.8750     2.1822    -2.2122 H       
  38 H38           -1.4016     2.1065    -2.2131 H       
  39 H39           -2.0740     0.6766    -1.3941 H       
  40 H40           -5.0432     4.2469    -0.2210 H       
  41 H41           -6.1599     9.0538    -0.7184 H       
  42 H42           -5.8373    11.5100    -0.5478 H       
  43 H43           -3.5221    12.4127    -0.5631 H       
  44 H44           -0.8459    11.0717     0.2734 H       
  45 H45           -0.5825    10.3573    -1.3355 H       
  46 H46           -1.2192    12.0131    -1.1905 H       
  47 H47           -6.9230     3.4960    -1.3023 H       
  48 H48           -7.0394     5.2304    -1.6851 H       
  49 H49           -7.2078     4.0201    -2.9793 H       
@<TRIPOS>BOND
   1    1    2 ar
   2    1    6 ar
   3    1   10 1
   4    2    3 ar
   5    2    7 1
   6    3    4 ar
   7    3   28 1
   8    4    5 ar
   9    4   29 1
  10    5    6 ar
  11    5   30 1
  12    7    8 2
  13    7    9 2
  14   10   11 1
  15   10   15 1
  16   11   12 1
  17   11   31 1
  18   11   32 1
  19   12   13 1
  20   12   33 1
  21   12   34 1
  22   13   14 1
  23   13   16 1
  24   13   35 1
  25   14   15 1
  26   14   36 1
  27   14   37 1
  28   15   38 1
  29   15   39 1
  30   16   17 1
  31   16   26 1
  32   16   40 1
  33   17   18 3
  34   18   19 1
  35   19   20 ar
  36   19   24 ar
  37   20   21 ar
  38   20   41 1
  39   21   22 ar
  40   21   42 1
  41   22   23 ar
  42   22   43 1
  43   23   24 ar
  44   23   25 1
  45   25   44 1
  46   25   45 1
  47   25   46 1
  48   26   27 1
  49   27   47 1
  50   27   48 1
  51   27   49 1

#	End of record

