#	Name: ASD01900544
#	Creating user name:	WinNT
#	Creation time:	15. 06. 2019 19:52

#	Modifying user name:	WinNT
#	Modification time:	15. 06. 2019 19:52

#	Program:	/corina/corina34_cracker 3.40 0067  02.08.2006

@<TRIPOS>MOLECULE
ASD01900544
  44   47    0    0    0
SMALL
NO_CHARGES


@<TRIPOS>ATOM
   1 C1             0.9846     3.1564     0.7507 C.ar    
   2 C2             2.0473     3.6068     1.5297 C.ar    
   3 C3             3.2479     2.9140     1.4984 C.ar    
   4 C4             3.3446     1.7943     0.6889 C.ar    
   5 C5             2.2447     1.4008    -0.0624 C.ar    
   6 N6             1.1162     2.0781    -0.0131 N.ar    
   7 C7            -0.3058     3.8830     0.7788 C.2     
   8 O8            -0.4336     4.8676     1.4798 O.2     
   9 N9            -1.3382     3.4523     0.0271 N.am    
  10 F10            2.3335     0.3095    -0.8537 F       
  11 C11           -2.5856     4.0788     0.1267 C.ar    
  12 C12           -2.6593     5.4499     0.3376 C.ar    
  13 C13           -3.8906     6.0678     0.4359 C.ar    
  14 C14           -5.0551     5.3176     0.3238 C.ar    
  15 C15           -4.9807     3.9479     0.1136 C.ar    
  16 C16           -3.7498     3.3309     0.0091 C.ar    
  17 C17           -8.2912     6.9642    -0.0587 C.3     
  18 C18           -8.4559     8.4620    -0.3333 C.3     
  19 C19           -9.5714     9.0062     0.5646 C.3     
  20 C20           -9.1863     8.8727     2.0381 C.3     
  21 C21           -9.0080     7.3888     2.3946 C.3     
  22 N22           -8.1042     6.8056     1.3997 N.am    
  23 C23           -6.9754     6.1143     1.5743 C.2     
  24 N24           -6.3066     5.9453     0.4236 N.am    
  25 C25           -6.9856     6.4544    -0.6263 C.2     
  26 O26           -6.5982     5.6887     2.6485 O.2     
  27 O27           -6.6243     6.4942    -1.7830 O.2     
  28 Cl28          -3.9836     7.7811     0.7000 Cl      
  29 H29            1.9379     4.4842     2.1498 H       
  30 H30            4.0892     3.2404     2.0919 H       
  31 H31            4.2661     1.2331     0.6420 H       
  32 H32           -1.2167     2.7080    -0.5829 H       
  33 H33           -1.7541     6.0325     0.4250 H       
  34 H34           -5.8858     3.3651     0.0268 H       
  35 H35           -3.6924     2.2656    -0.1593 H       
  36 H36           -9.1492     6.3960    -0.4182 H       
  37 H37           -7.5226     8.9793    -0.1110 H       
  38 H38           -8.7212     8.6150    -1.3794 H       
  39 H39           -9.7408    10.0572     0.3308 H       
  40 H40          -10.4876     8.4451     0.3800 H       
  41 H41           -8.2516     9.4038     2.2181 H       
  42 H42           -9.9723     9.3029     2.6588 H       
  43 H43           -8.5730     7.2963     3.3897 H       
  44 H44           -9.9721     6.8813     2.3620 H       
@<TRIPOS>BOND
   1    1    2 ar
   2    1    6 ar
   3    1    7 1
   4    2    3 ar
   5    2   29 1
   6    3    4 ar
   7    3   30 1
   8    4    5 ar
   9    4   31 1
  10    5    6 ar
  11    5   10 1
  12    7    8 2
  13    7    9 am
  14    9   11 1
  15    9   32 1
  16   11   12 ar
  17   11   16 ar
  18   12   13 ar
  19   12   33 1
  20   13   14 ar
  21   13   28 1
  22   14   15 ar
  23   14   24 1
  24   15   16 ar
  25   15   34 1
  26   16   35 1
  27   17   18 1
  28   17   22 1
  29   17   25 1
  30   17   36 1
  31   18   19 1
  32   18   37 1
  33   18   38 1
  34   19   20 1
  35   19   39 1
  36   19   40 1
  37   20   21 1
  38   20   41 1
  39   20   42 1
  40   21   22 1
  41   21   43 1
  42   21   44 1
  43   22   23 am
  44   23   24 am
  45   23   26 2
  46   24   25 am
  47   25   27 2

#	End of record

