#	Name: ASD03091213
#	Creating user name:	WinNT
#	Creation time:	15. 06. 2019 20:30

#	Modifying user name:	WinNT
#	Modification time:	15. 06. 2019 20:30

#	Program:	/corina/corina34_cracker 3.40 0067  02.08.2006

@<TRIPOS>MOLECULE
ASD03091213
  57   61    0    0    0
SMALL
NO_CHARGES


@<TRIPOS>ATOM
   1 N1            -0.0901     1.3919    -0.0018 N.2     
   2 C2            -0.1478     0.0856     0.0124 C.2     
   3 N3             0.9651    -0.7112     0.0304 N.am    
   4 C4             2.2015    -0.1605     0.0339 C.2     
   5 C5             2.2905     1.3072     0.0177 C.ar    
   6 C6             3.5167     1.9681     0.0194 C.ar    
   7 C7             3.5418     3.3525     0.0032 C.ar    
   8 C8             2.3517     4.0802    -0.0142 C.ar    
   9 C9             1.1426     3.4465    -0.0161 C.ar    
  10 C10            1.0874     2.0493     0.0001 C.ar    
  11 O11            3.2018    -0.8539     0.0502 O.2     
  12 C12            0.8170    -2.1686     0.0465 C.3     
  13 C13            0.6300    -2.6780    -1.3840 C.3     
  14 C14            0.4754    -4.2001    -1.3673 C.3     
  15 C15           -1.4770    -0.5609     0.0093 C.ar    
  16 C16           -1.8115    -1.4806     1.0047 C.ar    
  17 C17           -3.0547    -2.0807     0.9958 C.ar    
  18 C18           -3.9685    -1.7716     0.0020 C.ar    
  19 C19           -3.6421    -0.8614    -0.9870 C.ar    
  20 C20           -2.4051    -0.2500    -0.9857 C.ar    
  21 Cl21          -3.4732    -3.2252     2.2321 Cl      
  22 N22            7.5453     4.6222    -0.8281 N.3     
  23 C23            7.2165     3.7866     0.3368 C.3     
  24 C24            5.8843     3.0820     0.1336 C.3     
  25 N25            4.7669     4.0249     0.0047 N.3     
  26 C26            4.9187     4.8457    -1.2049 C.3     
  27 C27            5.6125     6.1582    -0.8722 C.3     
  28 C28            7.0950     6.0027    -0.5995 C.3     
  29 C29            7.1460     4.1060    -2.1198 C.3     
  30 C30            5.6352     4.0354    -2.2696 C.3     
  31 H31            4.4389     1.4062     0.0335 H       
  32 H32            2.3874     5.1596    -0.0260 H       
  33 H33            0.2298     4.0235    -0.0296 H       
  34 H34            1.7101    -2.6198     0.4790 H       
  35 H35           -0.0529    -2.4388     0.6451 H       
  36 H36           -0.2630    -2.2269    -1.8166 H       
  37 H37            1.4999    -2.4078    -1.9826 H       
  38 H38            1.3684    -4.6513    -0.9347 H       
  39 H39           -0.3946    -4.4703    -0.7687 H       
  40 H40            0.3421    -4.5630    -2.3864 H       
  41 H41           -1.0992    -1.7223     1.7798 H       
  42 H42           -4.9399    -2.2436    -0.0009 H       
  43 H43           -4.3589    -0.6253    -1.7596 H       
  44 H44           -2.1539     0.4643    -1.7558 H       
  45 H45            7.9994     3.0411     0.4764 H       
  46 H46            7.1582     4.4157     1.2250 H       
  47 H47            5.9401     2.4750    -0.7701 H       
  48 H48            5.6975     2.4276     0.9851 H       
  49 H49            3.9227     5.0757    -1.5834 H       
  50 H50            5.4811     6.8447    -1.7086 H       
  51 H51            5.1385     6.5904     0.0090 H       
  52 H52            7.2968     6.2759     0.4362 H       
  53 H53            7.6499     6.6716    -1.2573 H       
  54 H54            7.5486     4.7532    -2.8990 H       
  55 H55            7.5607     3.1057    -2.2442 H       
  56 H56            5.3200     2.9946    -2.1946 H       
  57 H57            5.3583     4.4178    -3.2520 H       
@<TRIPOS>BOND
   1    1    2 2
   2    1   10 1
   3    2    3 1
   4    2   15 1
   5    3    4 am
   6    3   12 1
   7    4    5 1
   8    4   11 2
   9    5    6 ar
  10    5   10 ar
  11    6    7 ar
  12    6   31 1
  13    7    8 ar
  14    7   25 1
  15    8    9 ar
  16    8   32 1
  17    9   10 ar
  18    9   33 1
  19   12   13 1
  20   12   34 1
  21   12   35 1
  22   13   14 1
  23   13   36 1
  24   13   37 1
  25   14   38 1
  26   14   39 1
  27   14   40 1
  28   15   16 ar
  29   15   20 ar
  30   16   17 ar
  31   16   41 1
  32   17   18 ar
  33   17   21 1
  34   18   19 ar
  35   18   42 1
  36   19   20 ar
  37   19   43 1
  38   20   44 1
  39   22   23 1
  40   22   28 1
  41   22   29 1
  42   23   24 1
  43   23   45 1
  44   23   46 1
  45   24   25 1
  46   24   47 1
  47   24   48 1
  48   25   26 1
  49   26   27 1
  50   26   30 1
  51   26   49 1
  52   27   28 1
  53   27   50 1
  54   27   51 1
  55   28   52 1
  56   28   53 1
  57   29   30 1
  58   29   54 1
  59   29   55 1
  60   30   56 1
  61   30   57 1

#	End of record

