#	Name: ASD08150722
#	Creating user name:	WinNT
#	Creation time:	15. 06. 2019 21:16

#	Modifying user name:	WinNT
#	Modification time:	15. 06. 2019 21:16

#	Program:	/corina/corina34_cracker 3.40 0067  02.08.2006

@<TRIPOS>MOLECULE
ASD08150722
  48   52    0    0    0
SMALL
NO_CHARGES


@<TRIPOS>ATOM
   1 C1            -0.0158     1.3168     0.0093 C.2     
   2 N2             0.0021    -0.0041     0.0020 N.2     
   3 C3             1.1387    -0.6846    -0.0125 C.2     
   4 C4             2.3424     0.0131    -0.0203 C.2     
   5 C5             2.3160     1.4197    -0.0125 C.2     
   6 N6             1.1169     2.0725     0.0025 N.am    
   7 S7            -1.3640     2.4677     0.0210 S.3     
   8 C8             0.9183     3.4311     0.0118 C.2     
   9 C9            -0.3178     3.8980     0.0246 C.2     
  10 O10            3.3590     2.0528    -0.0187 O.2     
  11 C11            2.0925     4.3757     0.0056 C.3     
  12 C12            3.6328    -0.7145    -0.0361 C.ar    
  13 C13            4.4822    -0.6084    -1.1368 C.ar    
  14 C14            5.6853    -1.2888    -1.1466 C.ar    
  15 C15            6.0478    -2.0750    -0.0652 C.ar    
  16 C16            5.2072    -2.1840     1.0305 C.ar    
  17 C17            4.0046    -1.5030     1.0522 C.ar    
  18 F18            5.5660    -2.9527     2.0819 F       
  19 F19            6.5089    -1.1871    -2.2127 F       
  20 C20            1.1279    -2.1915    -0.0200 C.3     
  21 C21            0.5274    -2.7038     1.2907 C.3     
  22 N22            0.3212    -2.6685    -1.1460 N.pl3   
  23 N23           -1.2296    -3.8894    -3.4997 N.2     
  24 C24           -1.5833    -4.7570    -4.4021 C.2     
  25 N25           -0.8102    -5.8766    -4.3001 N.pl3   
  26 C26            0.0708    -5.6753    -3.2679 C.ar    
  27 N27            1.0425    -6.3920    -2.7122 N.ar    
  28 C28            1.7387    -5.9088    -1.6960 C.ar    
  29 N29            1.5080    -4.7047    -1.1884 N.ar    
  30 C30            0.5554    -3.9221    -1.6829 C.ar    
  31 C31           -0.2098    -4.3949    -2.7629 C.ar    
  32 N32            2.7432    -6.6863    -1.1435 N.pl3   
  33 H33           -0.6257     4.9332     0.0310 H       
  34 H34            2.3658     4.6090    -1.0235 H       
  35 H35            1.8228     5.2941     0.5270 H       
  36 H36            2.9383     3.9072     0.5088 H       
  37 H37            4.2003     0.0041    -1.9805 H       
  38 H38            6.9887    -2.6051    -0.0766 H       
  39 H39            3.3521    -1.5847     1.9089 H       
  40 H40            2.1481    -2.5617    -0.1214 H       
  41 H41            1.1277    -2.3489     2.1285 H       
  42 H42           -0.4928    -2.3336     1.3921 H       
  43 H43            0.5197    -3.7937     1.2853 H       
  44 H44           -0.3771    -2.1056    -1.5152 H       
  45 H45           -2.3724    -4.6124    -5.1252 H       
  46 H46           -0.8722    -6.6695    -4.8554 H       
  47 H47            2.9260    -7.5689    -1.5020 H       
  48 H48            3.2637    -6.3482    -0.3981 H       
@<TRIPOS>BOND
   1    1    2 2
   2    1    6 1
   3    1    7 1
   4    2    3 1
   5    3    4 2
   6    3   20 1
   7    4    5 1
   8    4   12 1
   9    5    6 am
  10    5   10 2
  11    6    8 1
  12    7    9 1
  13    8    9 2
  14    8   11 1
  15    9   33 1
  16   11   34 1
  17   11   35 1
  18   11   36 1
  19   12   13 ar
  20   12   17 ar
  21   13   14 ar
  22   13   37 1
  23   14   15 ar
  24   14   19 1
  25   15   16 ar
  26   15   38 1
  27   16   17 ar
  28   16   18 1
  29   17   39 1
  30   20   21 1
  31   20   22 1
  32   20   40 1
  33   21   41 1
  34   21   42 1
  35   21   43 1
  36   22   30 1
  37   22   44 1
  38   23   24 2
  39   23   31 1
  40   24   25 1
  41   24   45 1
  42   25   26 1
  43   25   46 1
  44   26   27 ar
  45   26   31 ar
  46   27   28 ar
  47   28   29 ar
  48   28   32 1
  49   29   30 ar
  50   30   31 ar
  51   32   47 1
  52   32   48 1

#	End of record

