#	Name: ASD04230158
#	Creating user name:	WinNT
#	Creation time:	15. 06. 2019 20:48

#	Modifying user name:	WinNT
#	Modification time:	15. 06. 2019 20:48

#	Program:	/corina/corina34_cracker 3.40 0067  02.08.2006

@<TRIPOS>MOLECULE
ASD04230158
  61   65    0    0    0
SMALL
NO_CHARGES


@<TRIPOS>ATOM
   1 C1             1.5283     4.7645    -0.4871 C.ar    
   2 C2             2.4620     5.5922     0.1196 C.ar    
   3 C3             3.6894     5.1114     0.4758 C.ar    
   4 C4             4.0179     3.7726     0.2186 C.ar    
   5 C5             3.0637     2.9208    -0.3668 C.ar    
   6 C6             1.8199     3.4338    -0.7295 C.ar    
   7 C7             5.3034     3.2698     0.5486 C.2     
   8 C8             5.6426     2.0027     0.0932 C.2     
   9 C9             4.6454     1.2914    -0.7274 C.2     
  10 O10            3.3428     1.6089    -0.5557 O.3     
  11 C11            6.9442     1.3948     0.4160 C.2     
  12 N12            7.2445     0.1629    -0.0407 N.am    
  13 O13            7.7485     2.0045     1.0949 O.2     
  14 C14            8.5187    -0.3718     0.1755 C.ar    
  15 C15            8.6749    -1.7391     0.3690 C.ar    
  16 C16            9.9323    -2.2723     0.5837 C.ar    
  17 C17           11.0405    -1.4506     0.6072 C.ar    
  18 C18           10.8942    -0.0756     0.4133 C.ar    
  19 C19            9.6267     0.4616     0.1912 C.ar    
  20 C20           12.0799     0.8073     0.4385 C.2     
  21 O21            4.9843     0.4457    -1.5340 O.2     
  22 O22            0.8959     2.6294    -1.3195 O.3     
  23 N23           13.2869     0.5043     1.0391 N.am    
  24 C24           14.1680     1.5567     0.8672 C.ar    
  25 C25           13.4954     2.5528     0.1360 C.ar    
  26 C26           12.1522     2.0349    -0.1285 C.2     
  27 C27           15.4832     1.7712     1.2605 C.ar    
  28 C28           16.1131     2.9529     0.9319 C.ar    
  29 C29           15.4462     3.9333     0.2110 C.ar    
  30 C30           14.1526     3.7429    -0.1868 C.ar    
  31 C31           13.5633    -0.6414     1.6929 C.2     
  32 O32           13.3261    -0.7362     3.0144 O.3     
  33 O33           14.0266    -1.5883     1.0896 O.2     
  34 C34           13.6480    -1.9999     3.6529 C.3     
  35 C35           15.1398    -2.2928     3.4810 C.3     
  36 C36           13.3127    -1.9181     5.1435 C.3     
  37 C37           12.8305    -3.1205     3.0070 C.3     
  38 H38            0.5641     5.1611    -0.7686 H       
  39 H39            2.2159     6.6261     0.3116 H       
  40 H40            4.4064     5.7616     0.9548 H       
  41 H41            5.9963     3.8547     1.1353 H       
  42 H42            6.5770    -0.3529    -0.5194 H       
  43 H43            7.8112    -2.3872     0.3520 H       
  44 H44           10.0474    -3.3356     0.7338 H       
  45 H45           12.0209    -1.8709     0.7758 H       
  46 H46            9.5075     1.5244     0.0406 H       
  47 H47            0.3083     2.1818    -0.6954 H       
  48 H48           11.3650     2.5393    -0.6692 H       
  49 H49           16.0105     1.0146     1.8225 H       
  50 H50           17.1354     3.1172     1.2388 H       
  51 H51           15.9535     4.8536    -0.0383 H       
  52 H52           13.6398     4.5101    -0.7479 H       
  53 H53           15.7222    -1.4945     3.9411 H       
  54 H54           15.3814    -3.2415     3.9603 H       
  55 H55           15.3786    -2.3511     2.4191 H       
  56 H56           12.2499    -1.7095     5.2659 H       
  57 H57           13.5543    -2.8668     5.6228 H       
  58 H58           13.8951    -1.1199     5.6036 H       
  59 H59           13.0694    -3.1787     1.9451 H       
  60 H60           13.0722    -4.0691     3.4864 H       
  61 H61           11.7677    -2.9118     3.1295 H       
@<TRIPOS>BOND
   1    1    2 ar
   2    1    6 ar
   3    1   38 1
   4    2    3 ar
   5    2   39 1
   6    3    4 ar
   7    3   40 1
   8    4    5 ar
   9    4    7 1
  10    5    6 ar
  11    5   10 1
  12    6   22 1
  13    7    8 2
  14    7   41 1
  15    8    9 1
  16    8   11 1
  17    9   10 1
  18    9   21 2
  19   11   12 am
  20   11   13 2
  21   12   14 1
  22   12   42 1
  23   14   15 ar
  24   14   19 ar
  25   15   16 ar
  26   15   43 1
  27   16   17 ar
  28   16   44 1
  29   17   18 ar
  30   17   45 1
  31   18   19 ar
  32   18   20 1
  33   19   46 1
  34   20   23 1
  35   20   26 2
  36   22   47 1
  37   23   24 1
  38   23   31 am
  39   24   25 ar
  40   24   27 ar
  41   25   26 1
  42   25   30 ar
  43   26   48 1
  44   27   28 ar
  45   27   49 1
  46   28   29 ar
  47   28   50 1
  48   29   30 ar
  49   29   51 1
  50   30   52 1
  51   31   32 1
  52   31   33 2
  53   32   34 1
  54   34   35 1
  55   34   36 1
  56   34   37 1
  57   35   53 1
  58   35   54 1
  59   35   55 1
  60   36   56 1
  61   36   57 1
  62   36   58 1
  63   37   59 1
  64   37   60 1
  65   37   61 1

#	End of record

