#	Name: ASD05940031
#	Creating user name:	WinNT
#	Creation time:	15. 06. 2019 21:04

#	Modifying user name:	WinNT
#	Modification time:	15. 06. 2019 21:04

#	Program:	/corina/corina34_cracker 3.40 0067  02.08.2006

@<TRIPOS>MOLECULE
ASD05940031
  61   64    0    0    0
SMALL
NO_CHARGES


@<TRIPOS>ATOM
   1 N1            -0.0159     1.3181     0.0093 N.ar    
   2 C2             0.0021    -0.0041     0.0020 C.ar    
   3 N3             1.1319    -0.6930    -0.0101 N.ar    
   4 C4             2.3066    -0.0681    -0.0158 C.ar    
   5 C5             2.3274     1.3257    -0.0126 C.ar    
   6 C6             1.1197     2.0168     0.0022 C.ar    
   7 N7             3.4912    -0.7843    -0.0194 N.3     
   8 C8             4.5325    -0.1239    -0.8126 C.3     
   9 C9             4.6626     1.3202    -0.4024 C.2     
  10 N10            3.5574     2.0048    -0.0283 N.am    
  11 N11            1.0976     3.4049     0.0085 N.pl3   
  12 O12           -1.1750    -0.6756     0.0076 O.3     
  13 C13            3.2722    -2.1617    -0.4807 C.3     
  14 O14            5.7473     1.8634    -0.4080 O.2     
  15 C15           -2.3694     0.1089     0.0211 C.3     
  16 C16           -3.4871    -0.6514    -0.6956 C.3     
  17 O17           -3.8043    -1.8356     0.0385 O.3     
  18 C18            4.6022    -2.8335    -0.7061 C.ar    
  19 C19            5.2126    -3.5218     0.3257 C.ar    
  20 C20            5.2092    -2.7662    -1.9462 C.ar    
  21 C21            6.4292    -3.3824    -2.1530 C.ar    
  22 C22            7.0424    -4.0655    -1.1195 C.ar    
  23 C23            6.4326    -4.1380     0.1190 C.ar    
  24 C24           10.7616    -4.4796    -1.0153 C.3     
  25 N25            9.4559    -3.7949    -1.0374 N.3     
  26 C26           11.3893    -4.2223     0.3708 C.3     
  27 C27           10.6630    -2.9381     0.8505 C.3     
  28 C28            9.2403    -3.1499     0.2753 C.3     
  29 C29           -4.8424    -2.6229    -0.5486 C.3     
  30 C30            8.3722    -4.7377    -1.3450 C.3     
  31 C31           -2.7844     0.3811     1.4684 C.3     
  32 H32            5.4840    -0.6315    -0.6537 H       
  33 H33            4.2697    -0.1768    -1.8692 H       
  34 H34            3.6126     2.9403     0.2223 H       
  35 H35            1.9298     3.9032     0.0026 H       
  36 H36            0.2500     3.8765     0.0188 H       
  37 H37            2.7102    -2.7125     0.2736 H       
  38 H38            2.7096    -2.1471    -1.4142 H       
  39 H39           -2.1885     1.0550    -0.4891 H       
  40 H40           -4.3716    -0.0181    -0.7635 H       
  41 H41           -3.1568    -0.9229    -1.6982 H       
  42 H42            4.7364    -3.5779     1.2935 H       
  43 H43            4.7300    -2.2324    -2.7536 H       
  44 H44            6.9031    -3.3303    -3.1221 H       
  45 H45            6.9117    -4.6717     0.9264 H       
  46 H46           10.6216    -5.5500    -1.1661 H       
  47 H47           11.4061    -4.0742    -1.7953 H       
  48 H48           11.1875    -5.0542     1.0456 H       
  49 H49           12.4616    -4.0482     0.2819 H       
  50 H50           10.6403    -2.8859     1.9390 H       
  51 H51           11.1263    -2.0466     0.4279 H       
  52 H52            8.7355    -2.1921     0.1492 H       
  53 H53            8.6604    -3.8024     0.9281 H       
  54 H54           -5.0237    -3.5032     0.0680 H       
  55 H55           -5.7551    -2.0305    -0.6134 H       
  56 H56           -4.5402    -2.9353    -1.5482 H       
  57 H57            8.4536    -5.6093    -0.6955 H       
  58 H58            8.4486    -5.0519    -2.3860 H       
  59 H59           -1.9881     0.9227     1.9789 H       
  60 H60           -3.6954     0.9795     1.4787 H       
  61 H61           -2.9653    -0.5650     1.9785 H       
@<TRIPOS>BOND
   1    1    2 ar
   2    1    6 ar
   3    2    3 ar
   4    2   12 1
   5    3    4 ar
   6    4    5 ar
   7    4    7 1
   8    5    6 ar
   9    5   10 1
  10    6   11 1
  11    7    8 1
  12    7   13 1
  13    8    9 1
  14    8   32 1
  15    8   33 1
  16    9   10 am
  17    9   14 2
  18   10   34 1
  19   11   35 1
  20   11   36 1
  21   12   15 1
  22   13   18 1
  23   13   37 1
  24   13   38 1
  25   15   16 1
  26   15   31 1
  27   15   39 1
  28   16   17 1
  29   16   40 1
  30   16   41 1
  31   17   29 1
  32   18   19 ar
  33   18   20 ar
  34   19   23 ar
  35   19   42 1
  36   20   21 ar
  37   20   43 1
  38   21   22 ar
  39   21   44 1
  40   22   23 ar
  41   22   30 1
  42   23   45 1
  43   24   25 1
  44   24   26 1
  45   24   46 1
  46   24   47 1
  47   25   28 1
  48   25   30 1
  49   26   27 1
  50   26   48 1
  51   26   49 1
  52   27   28 1
  53   27   50 1
  54   27   51 1
  55   28   52 1
  56   28   53 1
  57   29   54 1
  58   29   55 1
  59   29   56 1
  60   30   57 1
  61   30   58 1
  62   31   59 1
  63   31   60 1
  64   31   61 1

#	End of record

