#	Name: ASD01916983
#	Creating user name:	WinNT
#	Creation time:	15. 06. 2019 20:08

#	Modifying user name:	WinNT
#	Modification time:	15. 06. 2019 20:08

#	Program:	/corina/corina34_cracker 3.40 0067  02.08.2006

@<TRIPOS>MOLECULE
ASD01916983
  65   69    0    0    0
SMALL
NO_CHARGES


@<TRIPOS>ATOM
   1 C1            -0.1985     1.3238     1.0318 C.ar    
   2 C2            -0.2457     0.0359     1.5425 C.ar    
   3 C3             0.9333    -0.6273     1.8748 C.ar    
   4 C4             2.1528    -0.0004     1.6951 C.ar    
   5 C5             2.1989     1.2946     1.1814 C.ar    
   6 C6             1.0167     1.9532     0.8509 C.ar    
   7 C7             3.5054     1.9709     0.9875 C.2     
   8 N8             4.7025     1.4436     1.2666 N.2     
   9 N9             3.6744     3.1845     0.5078 N.2     
  10 N10            5.0572     3.4285     0.4921 N.pl3   
  11 C11            5.6484     2.3111     0.9749 C.2     
  12 C12            7.1034     2.1015     1.1455 C.ar    
  13 C13            5.7274     4.6499     0.0392 C.3     
  14 C14            5.8028     5.6335     1.1786 C.2     
  15 O15            5.3421     5.3427     2.2621 O.2     
  16 N16            6.3823     6.8361     0.9934 N.am    
  17 C17            6.4664     7.8107     2.0917 C.3     
  18 C18            7.9185     8.2854     2.2110 C.3     
  19 N19            8.3777     8.7792     0.9059 N.3     
  20 C20            8.3803     7.7073    -0.0985 C.3     
  21 C21            6.9526     7.2065    -0.3108 C.3     
  22 C22            9.6273     9.3653     1.0091 C.ar    
  23 C23            7.6190     0.8083     1.2346 C.ar    
  24 C24            9.9280    10.5086     0.2489 C.ar    
  25 N25           10.5310     8.8493     1.8273 N.ar    
  26 C26           11.7330     9.3766     1.9560 C.ar    
  27 C27           12.1045    10.4987     1.2373 C.ar    
  28 C28           11.1982    11.0837     0.3705 C.ar    
  29 O29           -1.4445    -0.5806     1.7198 O.3     
  30 C30           -2.6134     0.1578     1.3587 C.3     
  31 C31            8.9766     0.6194     1.3932 C.ar    
  32 C32            9.8259     1.7092     1.4642 C.ar    
  33 C33            9.3207     2.9941     1.3764 C.ar    
  34 C34            7.9657     3.1960     1.2120 C.ar    
  35 O35            0.8851    -1.8905     2.3761 O.3     
  36 C36            2.1327    -2.5100     2.6949 C.3     
  37 C37            8.9529    11.0743    -0.6342 C.1     
  38 N38            8.1794    11.5230    -1.3348 N.1     
  39 H39           -1.1140     1.8340     0.7708 H       
  40 H40            3.0678    -0.5132     1.9525 H       
  41 H41            1.0509     2.9566     0.4528 H       
  42 H42            6.7349     4.4076    -0.2988 H       
  43 H43            5.1640     5.0897    -0.7837 H       
  44 H44            5.8196     8.6613     1.8769 H       
  45 H45            6.1577     7.3387     3.0245 H       
  46 H46            7.9795     9.0883     2.9457 H       
  47 H47            8.5483     7.4538     2.5274 H       
  48 H48            8.7762     8.0909    -1.0388 H       
  49 H49            9.0036     6.8837     0.2500 H       
  50 H50            6.9635     6.3367    -0.9677 H       
  51 H51            6.3494     7.9977    -0.7561 H       
  52 H52            6.9569    -0.0432     1.1800 H       
  53 H53           12.4403     8.9242     2.6352 H       
  54 H54           13.0930    10.9175     1.3549 H       
  55 H55           11.4657    11.9602    -0.2010 H       
  56 H56           -3.4992    -0.4480     1.5495 H       
  57 H57           -2.6635     1.0714     1.9510 H       
  58 H58           -2.5692     0.4132     0.2999 H       
  59 H59            9.3770    -0.3812     1.4623 H       
  60 H60           10.8877     1.5562     1.5890 H       
  61 H61            9.9888     3.8408     1.4329 H       
  62 H62            7.5725     4.1995     1.1437 H       
  63 H63            2.7463    -2.5748     1.7963 H       
  64 H64            2.6516    -1.9160     3.4472 H       
  65 H65            1.9519    -3.5119     3.0843 H       
@<TRIPOS>BOND
   1    1    2 ar
   2    1    6 ar
   3    1   39 1
   4    2    3 ar
   5    2   29 1
   6    3    4 ar
   7    3   35 1
   8    4    5 ar
   9    4   40 1
  10    5    6 ar
  11    5    7 1
  12    6   41 1
  13    7    8 1
  14    7    9 2
  15    8   11 2
  16    9   10 1
  17   10   11 1
  18   10   13 1
  19   11   12 1
  20   12   23 ar
  21   12   34 ar
  22   13   14 1
  23   13   42 1
  24   13   43 1
  25   14   15 2
  26   14   16 am
  27   16   17 1
  28   16   21 1
  29   17   18 1
  30   17   44 1
  31   17   45 1
  32   18   19 1
  33   18   46 1
  34   18   47 1
  35   19   20 1
  36   19   22 1
  37   20   21 1
  38   20   48 1
  39   20   49 1
  40   21   50 1
  41   21   51 1
  42   22   25 ar
  43   22   24 ar
  44   23   31 ar
  45   23   52 1
  46   24   37 1
  47   24   28 ar
  48   25   26 ar
  49   26   27 ar
  50   26   53 1
  51   27   28 ar
  52   27   54 1
  53   28   55 1
  54   29   30 1
  55   30   56 1
  56   30   57 1
  57   30   58 1
  58   31   32 ar
  59   31   59 1
  60   32   33 ar
  61   32   60 1
  62   33   34 ar
  63   33   61 1
  64   34   62 1
  65   35   36 1
  66   36   63 1
  67   36   64 1
  68   36   65 1
  69   37   38 3

#	End of record

