#	Name: ASD02198272
#	Creating user name:	WinNT
#	Creation time:	15. 06. 2019 20:19

#	Modifying user name:	WinNT
#	Modification time:	15. 06. 2019 20:19

#	Program:	/corina/corina34_cracker 3.40 0067  02.08.2006

@<TRIPOS>MOLECULE
ASD02198272
  42   45    0    0    0
SMALL
NO_CHARGES


@<TRIPOS>ATOM
   1 C1             0.5737     1.3644    -0.6473 C.2     
   2 C2             0.4756    -0.0085    -0.5544 C.2     
   3 S3             2.1875     1.8398    -0.9244 S.3     
   4 C4             2.7475     0.1752    -0.9169 C.2     
   5 C5             1.6892    -0.6728    -0.7049 C.2     
   6 N6             1.8172    -2.0602    -0.6461 N.pl3   
   7 C7             4.0865    -0.2303    -1.1022 C.2     
   8 C8            -0.7631    -0.6887    -0.3234 C.1     
   9 N9            -0.4883     2.2324    -0.5372 N.pl3   
  10 C10           -0.2647     3.6118    -0.5226 C.ar    
  11 C11            5.1178     0.7664    -1.4664 C.ar    
  12 O12            4.3935    -1.4016    -0.9623 O.2     
  13 C13            6.4410     0.5857    -1.0613 C.ar    
  14 C14            7.3977     1.5187    -1.4041 C.ar    
  15 C15            7.0476     2.6319    -2.1475 C.ar    
  16 C16            5.7374     2.8172    -2.5519 C.ar    
  17 C17            4.7724     1.8882    -2.2214 C.ar    
  18 C18           -1.1723     4.4707    -1.1296 C.ar    
  19 C19            0.8629     4.1276     0.1039 C.ar    
  20 C20            1.0808     5.4912     0.1164 C.ar    
  21 C21            0.1782     6.3430    -0.4937 C.ar    
  22 C22           -0.9482     5.8332    -1.1133 C.ar    
  23 N23           -1.7459    -1.2283    -0.1402 N.1     
  24 C24            1.5825    -2.8364     0.4539 C.2     
  25 C25            1.8128    -4.1218     0.1189 C.2     
  26 C26            2.2038    -4.1431    -1.2357 C.2     
  27 C27            2.1924    -2.8706    -1.6807 C.2     
  28 H28           -1.3922     1.8869    -0.4697 H       
  29 H29            6.7154    -0.2824    -0.4804 H       
  30 H30            8.4220     1.3801    -1.0912 H       
  31 H31            7.8002     3.3596    -2.4130 H       
  32 H32            5.4704     3.6884    -3.1317 H       
  33 H33            3.7502     2.0338    -2.5379 H       
  34 H34           -2.0520     4.0732    -1.6139 H       
  35 H35            1.5680     3.4630     0.5809 H       
  36 H36            1.9570     5.8930     0.6036 H       
  37 H37            0.3511     7.4090    -0.4825 H       
  38 H38           -1.6509     6.5012    -1.5892 H       
  39 H39            1.2671    -2.4815     1.4239 H       
  40 H40            1.7160    -4.9785     0.7693 H       
  41 H41            2.4608    -5.0192    -1.8126 H       
  42 H42            2.4437    -2.5467    -2.6799 H       
@<TRIPOS>BOND
   1    1    2 2
   2    1    3 1
   3    1    9 1
   4    2    8 1
   5    2    5 1
   6    3    4 1
   7    4    5 2
   8    4    7 1
   9    5    6 1
  10    6   24 1
  11    6   27 1
  12    7   11 1
  13    7   12 2
  14    8   23 3
  15    9   10 1
  16    9   28 1
  17   10   18 ar
  18   10   19 ar
  19   11   13 ar
  20   11   17 ar
  21   13   14 ar
  22   13   29 1
  23   14   15 ar
  24   14   30 1
  25   15   16 ar
  26   15   31 1
  27   16   17 ar
  28   16   32 1
  29   17   33 1
  30   18   22 ar
  31   18   34 1
  32   19   20 ar
  33   19   35 1
  34   20   21 ar
  35   20   36 1
  36   21   22 ar
  37   21   37 1
  38   22   38 1
  39   24   25 2
  40   24   39 1
  41   25   26 1
  42   25   40 1
  43   26   27 2
  44   26   41 1
  45   27   42 1

#	End of record

