#	Name: ASD03430543
#	Creating user name:	WinNT
#	Creation time:	15. 06. 2019 20:41

#	Modifying user name:	WinNT
#	Modification time:	15. 06. 2019 20:41

#	Program:	/corina/corina34_cracker 3.40 0067  02.08.2006

@<TRIPOS>MOLECULE
ASD03430543
  34   37    0    0    0
SMALL
NO_CHARGES


@<TRIPOS>ATOM
   1 N1            -0.0161     1.3395     0.0094 N.am    
   2 C2             0.0021    -0.0041     0.0020 C.2     
   3 C3             1.4548    -0.4298    -0.0141 C.3     
   4 C4             2.2197     0.8737    -0.0144 C.ar    
   5 C5             3.5641     1.1705    -0.0263 C.ar    
   6 C6             3.9795     2.4906    -0.0239 C.ar    
   7 C7             3.0415     3.5068    -0.0095 C.ar    
   8 C8             1.6940     3.2122     0.0024 C.ar    
   9 C9             1.2680     1.8853     0.0001 C.ar    
  10 O10           -0.9637    -0.7377     0.0076 O.2     
  11 C11           -1.2434     2.1395     0.0197 C.3     
  12 O12            2.6031    -3.2251     4.7294 O.3     
  13 C13            1.8603    -2.3749     5.6231 C.3     
  14 O14            1.8127    -1.1119     4.9332 O.3     
  15 C15            1.9018    -1.4186     3.6050 C.ar    
  16 C16            2.3878    -2.7181     3.4804 C.ar    
  17 C17            1.6008    -0.6821     2.4716 C.ar    
  18 C18            1.7830    -1.2343     1.2172 C.ar    
  19 C19            2.2668    -2.5276     1.0907 C.ar    
  20 C20            2.5693    -3.2692     2.2230 C.ar    
  21 O21            2.4444    -3.0690    -0.1439 O.3     
  22 F22            0.5693    -2.8767     5.8194 F       
  23 F23            2.5288    -2.2427     6.8449 F       
  24 H24            1.6751    -1.0021    -0.9153 H       
  25 H25            4.2935     0.3741    -0.0372 H       
  26 H26            5.0333     2.7266    -0.0329 H       
  27 H27            3.3659     4.5370    -0.0072 H       
  28 H28            0.9677     4.0114     0.0136 H       
  29 H29           -2.1090     1.4770     0.0208 H       
  30 H30           -1.2626     2.7638     0.9130 H       
  31 H31           -1.2717     2.7728    -0.8669 H       
  32 H32            1.2240     0.3255     2.5676 H       
  33 H33            2.9464    -4.2764     2.1241 H       
  34 H34            3.3224    -2.9147    -0.5185 H       
@<TRIPOS>BOND
   1    1    2 am
   2    1    9 1
   3    1   11 1
   4    2    3 1
   5    2   10 2
   6    3    4 1
   7    3   18 1
   8    3   24 1
   9    4    5 ar
  10    4    9 ar
  11    5    6 ar
  12    5   25 1
  13    6    7 ar
  14    6   26 1
  15    7    8 ar
  16    7   27 1
  17    8    9 ar
  18    8   28 1
  19   11   29 1
  20   11   30 1
  21   11   31 1
  22   12   13 1
  23   12   16 1
  24   13   14 1
  25   13   22 1
  26   13   23 1
  27   14   15 1
  28   15   16 ar
  29   15   17 ar
  30   16   20 ar
  31   17   18 ar
  32   17   32 1
  33   18   19 ar
  34   19   20 ar
  35   19   21 1
  36   20   33 1
  37   21   34 1

#	End of record

