#	Name: ASD01900951
#	Creating user name:	WinNT
#	Creation time:	15. 06. 2019 19:52

#	Modifying user name:	WinNT
#	Modification time:	15. 06. 2019 19:52

#	Program:	/corina/corina34_cracker 3.40 0067  02.08.2006

@<TRIPOS>MOLECULE
ASD01900951
  36   38    0    0    0
SMALL
NO_CHARGES


@<TRIPOS>ATOM
   1 C1            -0.0168     1.3892     0.0097 C.ar    
   2 C2             0.0021    -0.0041     0.0020 C.ar    
   3 C3             1.2224    -0.6606    -0.0131 C.ar    
   4 C4             2.3820     0.0992    -0.0201 C.ar    
   5 C5             2.2885     1.4816    -0.0118 C.ar    
   6 N6             1.1170     2.0793     0.0026 N.ar    
   7 C7            -1.3129     2.1060     0.0197 C.2     
   8 O8            -2.3540     1.4791     0.0212 O.2     
   9 N9            -1.3376     3.4535     0.0271 N.am    
  10 S10           -2.7751     5.8770     0.0471 S.3     
  11 C11           -2.5535     4.1260     0.0365 C.2     
  12 N12           -3.7346     3.5780     0.0391 N.2     
  13 N13           -4.7354     4.3450     0.0480 N.2     
  14 C14           -4.5213     5.6212     0.0539 C.2     
  15 S15           -5.7542     6.8800     0.0671 S.o2    
  16 O16           -5.1186     7.9994    -0.5347 O.2     
  17 O17           -6.8860     6.2683    -0.5363 O.2     
  18 C18           -6.0625     7.1931     1.8270 C.3     
  19 C19           -7.1123     8.2648     1.9702 C.ar    
  20 C20           -8.4491     7.9187     2.0350 C.ar    
  21 C21           -9.4120     8.9017     2.1663 C.ar    
  22 C22           -9.0382    10.2309     2.2331 C.ar    
  23 C23           -7.7014    10.5770     2.1692 C.ar    
  24 C24           -6.7382     9.5936     2.0423 C.ar    
  25 H25           -0.9212    -0.5644     0.0082 H       
  26 H26            1.2690    -1.7395    -0.0190 H       
  27 H27            3.3489    -0.3818    -0.0315 H       
  28 H28            3.1899     2.0764    -0.0172 H       
  29 H29           -0.5066     3.9539     0.0259 H       
  30 H30           -6.4113     6.2769     2.3034 H       
  31 H31           -5.1397     7.5224     2.3046 H       
  32 H32           -8.7411     6.8802     1.9828 H       
  33 H33          -10.4564     8.6313     2.2162 H       
  34 H34           -9.7906    10.9990     2.3349 H       
  35 H35           -7.4094    11.6155     2.2210 H       
  36 H36           -5.6935     9.8638     1.9960 H       
@<TRIPOS>BOND
   1    1    2 ar
   2    1    6 ar
   3    1    7 1
   4    2    3 ar
   5    2   25 1
   6    3    4 ar
   7    3   26 1
   8    4    5 ar
   9    4   27 1
  10    5    6 ar
  11    5   28 1
  12    7    8 2
  13    7    9 am
  14    9   11 1
  15    9   29 1
  16   10   11 1
  17   10   14 1
  18   11   12 2
  19   12   13 1
  20   13   14 2
  21   14   15 1
  22   15   16 2
  23   15   17 2
  24   15   18 1
  25   18   19 1
  26   18   30 1
  27   18   31 1
  28   19   20 ar
  29   19   24 ar
  30   20   21 ar
  31   20   32 1
  32   21   22 ar
  33   21   33 1
  34   22   23 ar
  35   22   34 1
  36   23   24 ar
  37   23   35 1
  38   24   36 1

#	End of record

