#	Name: ASD01200024
#	Creating user name:	WinNT
#	Creation time:	15. 06. 2019 19:08

#	Modifying user name:	WinNT
#	Modification time:	15. 06. 2019 19:08

#	Program:	/corina/corina34_cracker 3.40 0067  02.08.2006

@<TRIPOS>MOLECULE
ASD01200024
  46   49    0    0    0
SMALL
NO_CHARGES


@<TRIPOS>ATOM
   1 C1            -0.0131     1.3642    -0.3368 C.ar    
   2 C2             0.0162    -0.0271    -0.3033 C.ar    
   3 C3            -1.1549    -0.7466    -0.1930 C.ar    
   4 C4            -2.3751    -0.0861    -0.1144 C.ar    
   5 C5            -2.4121     1.3174    -0.1471 C.ar    
   6 C6            -1.2198     2.0377    -0.2533 C.ar    
   7 C7            -3.7011     2.0266    -0.0649 C.2     
   8 N8            -3.7324     3.3736    -0.0966 N.am    
   9 C9            -4.9475     4.0421    -0.0191 C.2     
  10 S10           -3.8710    -1.0066     0.0253 S.3     
  11 C11           -3.3253    -2.6751    -0.1263 C.ar    
  12 S12            1.4908     2.2712    -0.4785 S.3     
  13 C13            1.6837     2.2720    -2.2300 C.2     
  14 N14           -5.0889     5.3306    -0.0408 N.2     
  15 C15           -6.3205     5.7980     0.0432 C.2     
  16 C16           -7.2645     4.8599     0.1404 C.2     
  17 S17           -6.4749     3.2852     0.1115 S.3     
  18 N18            2.7535     2.7537    -2.9288 N.pl3   
  19 C19            2.4607     2.5410    -4.2473 C.2     
  20 N20            1.2902     1.9704    -4.2977 N.2     
  21 N21            0.8287     1.8046    -3.1097 N.2     
  22 C22           -2.9501    -3.3900     1.0044 C.ar    
  23 C23           -2.5233    -4.6977     0.8831 C.ar    
  24 C24           -2.4689    -5.2966    -0.3644 C.ar    
  25 C25           -2.8423    -4.5861    -1.4930 C.ar    
  26 C26           -3.2749    -3.2799    -1.3762 C.ar    
  27 F27           -2.0505    -6.5759    -0.4807 F       
  28 O28           -4.7368     1.3964     0.0317 O.2     
  29 C29           -6.6349     7.2717     0.0311 C.3     
  30 C30            3.9634     3.3709    -2.3798 C.3     
  31 H31            0.9615    -0.5460    -0.3644 H       
  32 H32           -1.1239    -1.8259    -0.1681 H       
  33 H33           -1.2400     3.1172    -0.2791 H       
  34 H34           -2.9064     3.8763    -0.1736 H       
  35 H35           -8.3272     5.0353     0.2190 H       
  36 H36            3.0840     2.7986    -5.0909 H       
  37 H37           -2.9920    -2.9233     1.9775 H       
  38 H38           -2.2312    -5.2537     1.7617 H       
  39 H39           -2.7991    -5.0553    -2.4648 H       
  40 H40           -3.5660    -2.7262    -2.2566 H       
  41 H41           -6.7906     7.6016    -0.9961 H       
  42 H42           -7.5385     7.4553     0.6125 H       
  43 H43           -5.8032     7.8243     0.4680 H       
  44 H44            4.7118     2.6007    -2.1937 H       
  45 H45            4.3572     4.0954    -3.0926 H       
  46 H46            3.7214     3.8759    -1.4447 H       
@<TRIPOS>BOND
   1    1    2 ar
   2    1   12 1
   3    1    6 ar
   4    2    3 ar
   5    2   31 1
   6    3    4 ar
   7    3   32 1
   8    4    5 ar
   9    4   10 1
  10    5    6 ar
  11    5    7 1
  12    6   33 1
  13    7    8 am
  14    7   28 2
  15    8    9 1
  16    8   34 1
  17    9   14 2
  18    9   17 1
  19   10   11 1
  20   11   22 ar
  21   11   26 ar
  22   12   13 1
  23   13   18 1
  24   13   21 2
  25   14   15 1
  26   15   16 2
  27   15   29 1
  28   16   17 1
  29   16   35 1
  30   18   19 1
  31   18   30 1
  32   19   20 2
  33   19   36 1
  34   20   21 1
  35   22   23 ar
  36   22   37 1
  37   23   24 ar
  38   23   38 1
  39   24   25 ar
  40   24   27 1
  41   25   26 ar
  42   25   39 1
  43   26   40 1
  44   29   41 1
  45   29   42 1
  46   29   43 1
  47   30   44 1
  48   30   45 1
  49   30   46 1

#	End of record

