#	Name: ASD05060116
#	Creating user name:	WinNT
#	Creation time:	15. 06. 2019 20:56

#	Modifying user name:	WinNT
#	Modification time:	15. 06. 2019 20:56

#	Program:	/corina/corina34_cracker 3.40 0067  02.08.2006

@<TRIPOS>MOLECULE
ASD05060116
  50   52    0    0    0
SMALL
NO_CHARGES


@<TRIPOS>ATOM
   1 C1            -0.0167     1.3781     0.0096 C.ar    
   2 C2             0.0021    -0.0041     0.0020 C.ar    
   3 C3             1.2084    -0.6789    -0.0132 C.ar    
   4 C4             2.3960     0.0285    -0.0212 C.ar    
   5 C5             2.3773     1.4107    -0.0145 C.ar    
   6 C6             1.1709     2.0855     0.0021 C.ar    
   7 C7             1.1505     3.5924     0.0104 C.3     
   8 N8             1.1571     4.0732     1.3943 N.pl3   
   9 C9             2.4290     4.3309     2.0741 C.3     
  10 C10           -0.0517     4.2864     2.0668 C.ar    
  11 C11            2.8424     5.7612     1.8411 C.ar    
  12 C12            2.4381     6.7493     2.7192 C.ar    
  13 C13            2.8173     8.0613     2.5054 C.ar    
  14 C14            3.6011     8.3852     1.4137 C.ar    
  15 C15            4.0061     7.3969     0.5361 C.ar    
  16 C16            3.6305     6.0842     0.7523 C.ar    
  17 C17           -1.2587     4.0411     1.4196 C.ar    
  18 C18           -2.4555     4.2489     2.0745 C.ar    
  19 C19           -2.4634     4.7042     3.3844 C.ar    
  20 C20           -1.2519     4.9532     4.0434 C.ar    
  21 C21           -0.0435     4.7352     3.3758 C.ar    
  22 O22           -3.6416     4.9088     4.0265 O.3     
  23 C23           -1.2520     5.4374     5.4357 C.2     
  24 O24           -2.3042     5.6216     6.0148 O.2     
  25 O25           -0.0852     5.6757     6.0663 O.3     
  26 C26            1.2289    -2.1857    -0.0205 C.3     
  27 C27            4.0136     9.8156     1.1801 C.3     
  28 H28           -0.9592     1.9054     0.0170 H       
  29 H29           -0.9258    -0.5567     0.0083 H       
  30 H30            3.3386    -0.4987    -0.0324 H       
  31 H31            3.3052     1.9634    -0.0201 H       
  32 H32            2.0305     3.9705    -0.5098 H       
  33 H33            0.2508     3.9463    -0.4929 H       
  34 H34            2.3111     4.1564     3.1436 H       
  35 H35            3.1941     3.6625     1.6791 H       
  36 H36            1.8258     6.4963     3.5721 H       
  37 H37            2.5009     8.8334     3.1911 H       
  38 H38            4.6181     7.6499    -0.3170 H       
  39 H39            3.9499     5.3116     0.0687 H       
  40 H40           -1.2589     3.6867     0.3994 H       
  41 H41           -3.3884     4.0567     1.5655 H       
  42 H42            0.8941     4.9206     3.8787 H       
  43 H43           -3.9698     4.1338     4.5026 H       
  44 H44           -0.1359     5.9921     6.9786 H       
  45 H45            1.2236    -2.5442    -1.0498 H       
  46 H46            2.1288    -2.5393     0.4828 H       
  47 H47            0.3491    -2.5635     0.5004 H       
  48 H48            4.9595    10.0083     1.6864 H       
  49 H49            4.1319     9.9896     0.1106 H       
  50 H50            3.2479    10.4836     1.5744 H       
@<TRIPOS>BOND
   1    1    2 ar
   2    1    6 ar
   3    1   28 1
   4    2    3 ar
   5    2   29 1
   6    3    4 ar
   7    3   26 1
   8    4    5 ar
   9    4   30 1
  10    5    6 ar
  11    5   31 1
  12    6    7 1
  13    7    8 1
  14    7   32 1
  15    7   33 1
  16    8    9 1
  17    8   10 1
  18    9   11 1
  19    9   34 1
  20    9   35 1
  21   10   17 ar
  22   10   21 ar
  23   11   12 ar
  24   11   16 ar
  25   12   13 ar
  26   12   36 1
  27   13   14 ar
  28   13   37 1
  29   14   15 ar
  30   14   27 1
  31   15   16 ar
  32   15   38 1
  33   16   39 1
  34   17   18 ar
  35   17   40 1
  36   18   19 ar
  37   18   41 1
  38   19   20 ar
  39   19   22 1
  40   20   21 ar
  41   20   23 1
  42   21   42 1
  43   22   43 1
  44   23   24 2
  45   23   25 1
  46   25   44 1
  47   26   45 1
  48   26   46 1
  49   26   47 1
  50   27   48 1
  51   27   49 1
  52   27   50 1

#	End of record

