#	Name: ASD01901270
#	Creating user name:	WinNT
#	Creation time:	15. 06. 2019 19:53

#	Modifying user name:	WinNT
#	Modification time:	15. 06. 2019 19:53

#	Program:	/corina/corina34_cracker 3.40 0067  02.08.2006

@<TRIPOS>MOLECULE
ASD01901270
  45   48    0    0    0
SMALL
NO_CHARGES


@<TRIPOS>ATOM
   1 C1             0.8604     1.3393     0.9658 C.ar    
   2 C2             0.8179    -0.0372     0.8920 C.ar    
   3 C3             0.9111    -0.6710    -0.3346 C.ar    
   4 C4             1.0479     0.0699    -1.4953 C.ar    
   5 C5             1.0919     1.4472    -1.4372 C.ar    
   6 C6             0.9980     2.0942    -0.2022 C.ar    
   7 C7             1.0424     3.5239    -0.1337 C.1     
   8 C8             1.0788     4.6960    -0.0776 C.1     
   9 C9             1.1233     6.1257    -0.0092 C.ar    
  10 C10            1.0836     8.1639     1.2411 C.ar    
  11 C11            1.0354     6.7823     1.2272 C.ar    
  12 C12            1.2606     6.8871    -1.1721 C.ar    
  13 N13            1.3027     8.2018    -1.1128 N.ar    
  14 C14            1.2174     8.8521     0.0371 C.ar    
  15 N15            1.2666    10.2457     0.0439 N.am    
  16 N16            2.5599    12.2184     0.0651 N.am    
  17 C17            2.4475    10.8729     0.1142 C.2     
  18 C18            0.1244    10.9595    -0.0390 C.2     
  19 C19            0.1943    12.4184     0.1532 C.ar    
  20 C20            1.4656    13.0267     0.3061 C.ar    
  21 C21            1.4951    14.3377     0.7425 C.ar    
  22 C22           -0.9666    13.1867     0.1507 C.ar    
  23 C23           -0.8917    14.5321     0.4354 C.ar    
  24 C24            0.3300    15.0917     0.7600 C.ar    
  25 C25            3.8658    12.7377    -0.3546 C.3     
  26 O26           -0.9373    10.4114    -0.2679 O.2     
  27 F27            1.0018     8.8388     2.4085 F       
  28 O28            3.4612    10.2136     0.2260 O.2     
  29 C29            2.7333    15.0085     1.2853 C.3     
  30 H30            0.7831     1.8328     1.9233 H       
  31 H31            0.7120    -0.6219     1.7938 H       
  32 H32            0.8772    -1.7492    -0.3863 H       
  33 H33            1.1208    -0.4316    -2.4491 H       
  34 H34            1.1991     2.0241    -2.3439 H       
  35 H35            0.9324     6.2226     2.1451 H       
  36 H36            1.3333     6.3926    -2.1294 H       
  37 H37           -1.9204    12.7306    -0.0734 H       
  38 H38           -1.7805    15.1431     0.4047 H       
  39 H39            0.3874    16.1353     1.0353 H       
  40 H40            4.5388    11.9053    -0.5600 H       
  41 H41            3.7452    13.3384    -1.2561 H       
  42 H42            4.2838    13.3553     0.4403 H       
  43 H43            3.2790    15.4800     0.4679 H       
  44 H44            2.4461    15.7656     2.0149 H       
  45 H45            3.3690    14.2643     1.7650 H       
@<TRIPOS>BOND
   1    1    2 ar
   2    1    6 ar
   3    1   30 1
   4    2    3 ar
   5    2   31 1
   6    3    4 ar
   7    3   32 1
   8    4    5 ar
   9    4   33 1
  10    5    6 ar
  11    5   34 1
  12    6    7 1
  13    7    8 3
  14    8    9 1
  15    9   12 ar
  16    9   11 ar
  17   10   11 ar
  18   10   14 ar
  19   10   27 1
  20   11   35 1
  21   12   13 ar
  22   12   36 1
  23   13   14 ar
  24   14   15 1
  25   15   18 am
  26   15   17 am
  27   16   17 am
  28   16   20 1
  29   16   25 1
  30   17   28 2
  31   18   19 1
  32   18   26 2
  33   19   22 ar
  34   19   20 ar
  35   20   21 ar
  36   21   24 ar
  37   21   29 1
  38   22   23 ar
  39   22   37 1
  40   23   24 ar
  41   23   38 1
  42   24   39 1
  43   25   40 1
  44   25   41 1
  45   25   42 1
  46   29   43 1
  47   29   44 1
  48   29   45 1

#	End of record

