#	Name: ASD01810411
#	Creating user name:	WinNT
#	Creation time:	15. 06. 2019 19:24

#	Modifying user name:	WinNT
#	Modification time:	15. 06. 2019 19:24

#	Program:	/corina/corina34_cracker 3.40 0067  02.08.2006

@<TRIPOS>MOLECULE
ASD01810411
  20   20    0    0    0
SMALL
NO_CHARGES


@<TRIPOS>ATOM
   1 C1            -0.0180     1.4732     0.0101 C.2     
   2 C2             0.0021    -0.0041     0.0020 C.ar    
   3 C3             1.2171    -0.6856    -0.0132 C.ar    
   4 C4             1.2265    -2.0812    -0.0209 C.ar    
   5 C5             0.0166    -2.7851    -0.0132 C.ar    
   6 C6            -1.1822    -2.1018     0.0015 C.ar    
   7 C7            -1.1977    -0.7206     0.0154 C.ar    
   8 O8             1.0256     2.0948     0.0035 O.2     
   9 O9            -1.1936     2.1308     0.0193 O.3     
  10 C10            0.0232    -4.2921    -0.0214 C.3     
  11 C11            2.5048    -2.8107    -0.0375 C.2     
  12 O12            3.5518    -2.1991    -0.0446 O.2     
  13 H13            2.1472    -0.1366    -0.0195 H       
  14 H14           -2.1129    -2.6497     0.0071 H       
  15 H15           -2.1398    -0.1929     0.0321 H       
  16 H16           -1.1561     3.0971     0.0244 H       
  17 H17            0.0346    -4.6609     1.0043 H       
  18 H18           -0.8700    -4.6566    -0.5287 H       
  19 H19            0.9098    -4.6487    -0.5456 H       
  20 H20            2.5102    -3.8906    -0.0434 H       
@<TRIPOS>BOND
   1    1    2 1
   2    1    8 2
   3    1    9 1
   4    2    3 ar
   5    2    7 ar
   6    3    4 ar
   7    3   13 1
   8    4    5 ar
   9    4   11 1
  10    5    6 ar
  11    5   10 1
  12    6    7 ar
  13    6   14 1
  14    7   15 1
  15    9   16 1
  16   10   17 1
  17   10   18 1
  18   10   19 1
  19   11   12 2
  20   11   20 1

#	End of record

