#	Name: ASD00844709
#	Creating user name:	WinNT
#	Creation time:	15. 06. 2019 18:50

#	Modifying user name:	WinNT
#	Modification time:	15. 06. 2019 18:50

#	Program:	/corina/corina34_cracker 3.40 0067  02.08.2006

@<TRIPOS>MOLECULE
ASD00844709
  95  100    0    0    0
SMALL
NO_CHARGES


@<TRIPOS>ATOM
   1 C1             0.7169     1.2151    -0.4478 C.ar    
   2 C2             0.9692    -0.1269    -0.6912 C.ar    
   3 C3             0.8623    -1.0488     0.3403 C.ar    
   4 C4             0.5051    -0.6283     1.6065 C.ar    
   5 C5             0.2536     0.7102     1.8466 C.ar    
   6 C6             0.3599     1.6307     0.8207 C.ar    
   7 C7             1.1353    -2.5077     0.0791 C.3     
   8 C8             0.8226    -3.3344     1.3082 C.2     
   9 C9             0.3200    -2.9984    -1.1189 C.3     
  10 C10           -1.1398    -2.7038    -0.8877 C.2     
  11 N11           -2.0629    -3.1400    -1.7675 N.am    
  12 O12           -1.4838    -2.0742     0.0901 O.2     
  13 C13           -3.4753    -2.7638    -1.6188 C.3     
  14 C14           -4.3268    -4.0373    -1.6137 C.3     
  15 C15           -4.0231    -4.8542    -2.8717 C.3     
  16 C16           -2.5474    -5.2599    -2.8746 C.3     
  17 C17           -1.6749    -3.9957    -2.8971 C.3     
  18 N18           -4.8621    -6.0600    -2.8867 N.3     
  19 C19           -4.6843    -6.8098    -4.1379 C.3     
  20 C20           -5.5122    -8.0958    -4.0809 C.3     
  21 N21           -6.9263    -7.7560    -3.8705 N.3     
  22 C22           -7.1042    -7.0061    -2.6192 C.3     
  23 C23           -6.2763    -5.7201    -2.6762 C.3     
  24 C24           -7.7654    -8.9617    -3.8854 C.3     
  25 O25           -0.2583    -3.4419     1.8477 O.2     
  26 N26            1.9664    -3.9270     1.6888 N.am    
  27 C27            2.6117    -2.7377    -0.1509 C.ar    
  28 C28            3.0343    -3.6004     0.8577 C.ar    
  29 C29            3.4892    -2.2732    -1.0976 C.ar    
  30 C30            4.8313    -2.6678    -1.0559 C.ar    
  31 C31            5.2632    -3.5348    -0.0449 C.ar    
  32 C32            4.3714    -3.9956     0.8998 C.ar    
  33 F33            6.5567    -3.9217     0.0041 F       
  34 C34            1.7737    -6.5699     2.4323 C.ar    
  35 C35            0.5192    -6.9036     1.9435 C.ar    
  36 C36            2.7750    -7.5212     2.4692 C.ar    
  37 C37            2.5275    -8.8046     2.0190 C.ar    
  38 C38            1.2777    -9.1399     1.5313 C.ar    
  39 C39            0.2732    -8.1927     1.4927 C.ar    
  40 H40            1.0869   -10.1433     1.1802 H       
  41 O41           -0.4675    -5.9698     1.9066 O.3     
  42 C42           -1.7340    -6.3843     1.3906 C.3     
  43 C43           -9.2073    -8.5839    -3.5404 C.3     
  44 C44           -7.7233    -9.5951    -5.2775 C.3     
  45 C45            5.7552    -2.1891    -2.0396 C.1     
  46 N46            6.4882    -1.8093    -2.8200 N.1     
  47 S47            2.0921    -4.9321     2.9989 S.o2    
  48 O48            3.4558    -4.9034     3.3973 O.2     
  49 O49            1.0209    -4.5931     3.8689 O.2     
  50 O50            1.3201    -0.5382    -1.9381 O.3     
  51 C51            1.3472     0.4549    -2.9652 C.3     
  52 C52            1.8398    -0.1742    -4.2700 C.3     
  53 F53            3.0900    -0.7657    -4.0597 F       
  54 F54            0.9281    -1.1480    -4.6915 F       
  55 H55            0.8038     1.9352    -1.2479 H       
  56 H56            0.4218    -1.3455     2.4097 H       
  57 H57           -0.0262     1.0369     2.8372 H       
  58 H58            0.1630     2.6754     1.0107 H       
  59 H59            0.6555    -2.4865    -2.0209 H       
  60 H60            0.4594    -4.0729    -1.2378 H       
  61 H61           -3.6138    -2.2280    -0.6797 H       
  62 H62           -3.7739    -2.1280    -2.4522 H       
  63 H63           -4.0906    -4.6294    -0.7296 H       
  64 H64           -5.3831    -3.7686    -1.6007 H       
  65 H65           -4.2361    -4.2529    -3.7555 H       
  66 H66           -2.3280    -5.8405    -1.9785 H       
  67 H67           -2.3372    -5.8614    -3.7589 H       
  68 H68           -1.8279    -3.4628    -3.8355 H       
  69 H69           -0.6256    -4.2742    -2.7994 H       
  70 H70           -5.0171    -6.2000    -4.9778 H       
  71 H71           -3.6312    -7.0607    -4.2650 H       
  72 H72           -5.4046    -8.6395    -5.0195 H       
  73 H73           -5.1613    -8.7181    -3.2577 H       
  74 H74           -8.1573    -6.7553    -2.4921 H       
  75 H75           -6.7714    -7.6160    -1.7793 H       
  76 H76           -6.3838    -5.1765    -1.7376 H       
  77 H77           -6.6272    -5.0979    -3.4995 H       
  78 H78           -7.3907    -9.6742    -3.1506 H       
  79 H79            3.1452    -1.6051    -1.8733 H       
  80 H80            4.7099    -4.6643     1.6773 H       
  81 H81            3.7519    -7.2618     2.8497 H       
  82 H82            3.3118    -9.5466     2.0480 H       
  83 H83           -0.7029    -8.4552     1.1123 H       
  84 H84           -1.6137    -6.7240     0.3619 H       
  85 H85           -2.1251    -7.1997     1.9992 H       
  86 H86           -2.4293    -5.5453     1.4172 H       
  87 H87           -9.8299    -9.4786    -3.5515 H       
  88 H88           -9.2373    -8.1327    -2.5486 H       
  89 H89           -9.5820    -7.8714    -4.2753 H       
  90 H90           -6.6960    -9.8642    -5.5233 H       
  91 H91           -8.3458   -10.4897    -5.2887 H       
  92 H92           -8.0980    -8.8825    -6.0124 H       
  93 H93            0.3436     0.8546    -3.1107 H       
  94 H94            2.0205     1.2609    -2.6736 H       
  95 H95            1.9269     0.5973    -5.0351 H       
@<TRIPOS>BOND
   1    1    2 ar
   2    1    6 ar
   3    1   55 1
   4    2    3 ar
   5    2   50 1
   6    3    4 ar
   7    3    7 1
   8    4    5 ar
   9    4   56 1
  10    5    6 ar
  11    5   57 1
  12    6   58 1
  13    7    8 1
  14    7    9 1
  15    7   27 1
  16    8   25 2
  17    8   26 am
  18    9   10 1
  19    9   59 1
  20    9   60 1
  21   10   11 am
  22   10   12 2
  23   11   13 1
  24   11   17 1
  25   13   14 1
  26   13   61 1
  27   13   62 1
  28   14   15 1
  29   14   63 1
  30   14   64 1
  31   15   16 1
  32   15   18 1
  33   15   65 1
  34   16   17 1
  35   16   66 1
  36   16   67 1
  37   17   68 1
  38   17   69 1
  39   18   19 1
  40   18   23 1
  41   19   20 1
  42   19   70 1
  43   19   71 1
  44   20   21 1
  45   20   72 1
  46   20   73 1
  47   21   22 1
  48   21   24 1
  49   22   23 1
  50   22   74 1
  51   22   75 1
  52   23   76 1
  53   23   77 1
  54   24   43 1
  55   24   44 1
  56   24   78 1
  57   26   47 am
  58   26   28 1
  59   27   28 ar
  60   27   29 ar
  61   28   32 ar
  62   29   30 ar
  63   29   79 1
  64   30   31 ar
  65   30   45 1
  66   31   32 ar
  67   31   33 1
  68   32   80 1
  69   34   35 ar
  70   34   36 ar
  71   34   47 1
  72   35   41 1
  73   35   39 ar
  74   36   37 ar
  75   36   81 1
  76   37   38 ar
  77   37   82 1
  78   38   39 ar
  79   38   40 1
  80   39   83 1
  81   41   42 1
  82   42   84 1
  83   42   85 1
  84   42   86 1
  85   43   87 1
  86   43   88 1
  87   43   89 1
  88   44   90 1
  89   44   91 1
  90   44   92 1
  91   45   46 3
  92   47   48 2
  93   47   49 2
  94   50   51 1
  95   51   52 1
  96   51   93 1
  97   51   94 1
  98   52   53 1
  99   52   54 1
 100   52   95 1

#	End of record

