#	Name: ASD01100079
#	Creating user name:	WinNT
#	Creation time:	15. 06. 2019 18:58

#	Modifying user name:	WinNT
#	Modification time:	15. 06. 2019 18:58

#	Program:	/corina/corina34_cracker 3.40 0067  02.08.2006

@<TRIPOS>MOLECULE
ASD01100079
  32   34    0    0    0
SMALL
NO_CHARGES


@<TRIPOS>ATOM
   1 C1             0.3658     0.7333    -1.1469 C.ar    
   2 C2            -0.0078     0.0023    -0.0333 C.ar    
   3 C3             0.8091    -0.0228     1.0830 C.ar    
   4 C4             1.9979     0.6823     1.0850 C.ar    
   5 C5             2.3707     1.4125    -0.0281 C.ar    
   6 C6             1.5548     1.4379    -1.1437 C.ar    
   7 C7             3.6667     2.1814    -0.0250 C.3     
   8 Cl8           -1.5014    -0.8825    -0.0363 Cl      
   9 C9             4.6652     1.6492    -1.0205 C.2     
  10 N10            5.0306     0.3525    -0.9810 N.am    
  11 O11            5.1400     2.3878    -1.8572 O.2     
  12 C12            5.8661    -0.1649    -1.9654 C.2     
  13 N13            6.2824    -1.3924    -2.0300 N.2     
  14 C14            7.0728    -1.7047    -3.0399 C.2     
  15 C15            7.3540    -0.7106    -3.8851 C.2     
  16 S16            6.5218     0.7395    -3.3274 S.3     
  17 C17            3.4787     3.7060    -0.0962 C.3     
  18 C18            4.2526     2.3957     1.3806 C.3     
  19 F19            8.1376    -0.8014    -4.9818 F       
  20 C20            4.6276     3.8162     0.9201 C.3     
  21 H21           -0.2694     0.7497    -2.0202 H       
  22 H22            0.5178    -0.5929     1.9528 H       
  23 H23            2.6356     0.6630     1.9565 H       
  24 H24            1.8465     2.0086    -2.0130 H       
  25 H25            4.7110    -0.2198    -0.2660 H       
  26 H26            7.4672    -2.7012    -3.1737 H       
  27 H27            3.7164     4.1302    -1.0717 H       
  28 H28            2.5185     4.0461     0.2918 H       
  29 H29            3.5044     2.3769     2.1730 H       
  30 H30            5.1142     1.7637     1.5955 H       
  31 H31            5.6135     3.8783     0.4595 H       
  32 H32            4.4658     4.5797     1.6809 H       
@<TRIPOS>BOND
   1    1    2 ar
   2    1    6 ar
   3    1   21 1
   4    2    3 ar
   5    2    8 1
   6    3    4 ar
   7    3   22 1
   8    4    5 ar
   9    4   23 1
  10    5    6 ar
  11    5    7 1
  12    6   24 1
  13    7    9 1
  14    7   17 1
  15    7   18 1
  16    9   10 am
  17    9   11 2
  18   10   12 1
  19   10   25 1
  20   12   13 2
  21   12   16 1
  22   13   14 1
  23   14   15 2
  24   14   26 1
  25   15   16 1
  26   15   19 1
  27   17   20 1
  28   17   27 1
  29   17   28 1
  30   18   20 1
  31   18   29 1
  32   18   30 1
  33   20   31 1
  34   20   32 1

#	End of record

