#	Name: ASD01900008
#	Creating user name:	WinNT
#	Creation time:	15. 06. 2019 19:51

#	Modifying user name:	WinNT
#	Modification time:	15. 06. 2019 19:51

#	Program:	/corina/corina34_cracker 3.40 0067  02.08.2006

@<TRIPOS>MOLECULE
ASD01900008
  35   37    0    0    0
SMALL
NO_CHARGES


@<TRIPOS>ATOM
   1 C1            -0.0168     1.3887     0.0097 C.ar    
   2 C2             0.0021    -0.0041     0.0020 C.ar    
   3 C3             1.1794    -0.6880    -0.0129 C.ar    
   4 C4             2.3946     0.0170    -0.0206 C.ar    
   5 C5             2.3753     1.4339    -0.0129 C.ar    
   6 C6             1.1415     2.1047     0.0025 C.ar    
   7 N7             3.5668    -0.6296    -0.0347 N.ar    
   8 C8             4.6928     0.0597    -0.0414 C.ar    
   9 C9             4.6687     1.4661    -0.0332 C.ar    
  10 N10            3.5294     2.1140    -0.0198 N.ar    
  11 C11            5.9648     2.2350    -0.0405 C.3     
  12 N12            5.9076    -0.6073    -0.0560 N.pl3   
  13 N13            5.9375    -2.0080    -0.0637 N.2     
  14 C14            7.0754    -2.6329    -0.0774 C.2     
  15 C15            7.1070    -4.1067    -0.0855 C.ar    
  16 C16            8.3306    -4.7815    -0.1002 C.ar    
  17 C17            8.3552    -6.1594    -0.1073 C.ar    
  18 C18            7.1663    -6.8773    -0.1002 C.ar    
  19 C19            5.9478    -6.2110    -0.0860 C.ar    
  20 C20            5.9135    -4.8334    -0.0726 C.ar    
  21 O21            7.1954    -8.2356    -0.1076 O.3     
  22 H22           -0.9637     1.9081     0.0170 H       
  23 H23           -0.9302    -0.5492     0.0083 H       
  24 H24            1.1790    -1.7680    -0.0183 H       
  25 H25            1.1114     3.1843     0.0085 H       
  26 H26            6.2680     2.4262    -1.0699 H       
  27 H27            5.8278     3.1829     0.4799 H       
  28 H28            6.7359     1.6521     0.4631 H       
  29 H29            6.7370    -0.1044    -0.0609 H       
  30 H30            7.9989    -2.0729    -0.0828 H       
  31 H31            9.2556    -4.2240    -0.1064 H       
  32 H32            9.3004    -6.6817    -0.1187 H       
  33 H33            5.0258    -6.7734    -0.0809 H       
  34 H34            4.9655    -4.3161    -0.0615 H       
  35 H35            7.2119    -8.6335     0.7735 H       
@<TRIPOS>BOND
   1    1    2 ar
   2    1    6 ar
   3    1   22 1
   4    2    3 ar
   5    2   23 1
   6    3    4 ar
   7    3   24 1
   8    4    5 ar
   9    4    7 ar
  10    5    6 ar
  11    5   10 ar
  12    6   25 1
  13    7    8 ar
  14    8    9 ar
  15    8   12 1
  16    9   10 ar
  17    9   11 1
  18   11   26 1
  19   11   27 1
  20   11   28 1
  21   12   13 1
  22   12   29 1
  23   13   14 2
  24   14   15 1
  25   14   30 1
  26   15   16 ar
  27   15   20 ar
  28   16   17 ar
  29   16   31 1
  30   17   18 ar
  31   17   32 1
  32   18   19 ar
  33   18   21 1
  34   19   20 ar
  35   19   33 1
  36   20   34 1
  37   21   35 1

#	End of record

