#	Name: ASD01410409
#	Creating user name:	WinNT
#	Creation time:	15. 06. 2019 19:17

#	Modifying user name:	WinNT
#	Modification time:	15. 06. 2019 19:17

#	Program:	/corina/corina34_cracker 3.40 0067  02.08.2006

@<TRIPOS>MOLECULE
ASD01410409
  36   38    0    0    0
SMALL
NO_CHARGES


@<TRIPOS>ATOM
   1 S1            -0.0147     1.7572    -0.0969 S.3     
   2 C2            -0.0019     0.0035     0.1581 C.2     
   3 N3             1.2728    -0.3521     0.3542 N.am    
   4 C4             2.2189     0.5718     0.3279 C.2     
   5 C5             1.7424     1.9383     0.0762 C.2     
   6 S6            -1.3615    -1.0370     0.1548 S.2     
   7 O7             3.3947     0.3097     0.4997 O.2     
   8 N8             1.6032    -1.6937     0.5862 N.am    
   9 S9             1.9590    -2.6910    -0.6871 S.o2    
  10 O10            2.3941    -3.9210    -0.1241 O.2     
  11 O11            0.8667    -2.5931    -1.5908 O.2     
  12 C12            3.3533    -2.0021    -1.5154 C.ar    
  13 C13            4.6318    -2.3678    -1.1378 C.ar    
  14 C14            5.7256    -1.8274    -1.7876 C.ar    
  15 C15            5.5410    -0.9215    -2.8153 C.ar    
  16 C16            4.2625    -0.5564    -3.1935 C.ar    
  17 C17            3.1685    -1.1002    -2.5466 C.ar    
  18 C18            2.4762     3.0762    -0.0055 C.2     
  19 C19           -0.1483     5.7445     0.2253 C.ar    
  20 C20            0.5358     6.8370    -0.2865 C.ar    
  21 C21            0.4762     4.5185     0.3196 C.ar    
  22 C22            1.8032     4.3792    -0.1029 C.ar    
  23 C23            2.4863     5.4865    -0.6181 C.ar    
  24 C24            1.8492     6.7057    -0.7063 C.ar    
  25 Cl25          -0.2581     8.3765    -0.4020 Cl      
  26 Cl26          -1.7919     5.9224     0.7551 Cl      
  27 H27            1.6236    -2.0384     1.4926 H       
  28 H28            4.7760    -3.0756    -0.3349 H       
  29 H29            6.7245    -2.1126    -1.4921 H       
  30 H30            6.3956    -0.4986    -3.3225 H       
  31 H31            4.1182     0.1516    -3.9962 H       
  32 H32            2.1696    -0.8177    -2.8445 H       
  33 H33            3.5549     3.0248     0.0011 H       
  34 H34           -0.0572     3.6684     0.7186 H       
  35 H35            3.5106     5.3861    -0.9457 H       
  36 H36            2.3754     7.5608    -1.1041 H       
@<TRIPOS>BOND
   1    1    2 1
   2    1    5 1
   3    2    3 am
   4    2    6 2
   5    3    4 am
   6    3    8 1
   7    4    5 1
   8    4    7 2
   9    5   18 2
  10    8    9 am
  11    8   27 1
  12    9   10 2
  13    9   11 2
  14    9   12 1
  15   12   13 ar
  16   12   17 ar
  17   13   14 ar
  18   13   28 1
  19   14   15 ar
  20   14   29 1
  21   15   16 ar
  22   15   30 1
  23   16   17 ar
  24   16   31 1
  25   17   32 1
  26   18   22 1
  27   18   33 1
  28   19   20 ar
  29   19   21 ar
  30   19   26 1
  31   20   24 ar
  32   20   25 1
  33   21   22 ar
  34   21   34 1
  35   22   23 ar
  36   23   24 ar
  37   23   35 1
  38   24   36 1

#	End of record

