#	Name: ASD03330743
#	Creating user name:	WinNT
#	Creation time:	15. 06. 2019 20:37

#	Modifying user name:	WinNT
#	Modification time:	15. 06. 2019 20:37

#	Program:	/corina/corina34_cracker 3.40 0067  02.08.2006

@<TRIPOS>MOLECULE
ASD03330743
  60   62    0    0    0
SMALL
NO_CHARGES


@<TRIPOS>ATOM
   1 C1            -0.0159     1.3546     0.0393 C.2     
   2 N2             0.0042    -0.0047     0.0504 N.pl3   
   3 C3             1.2781     1.7736    -0.0303 C.2     
   4 N4             2.0647     0.6762    -0.0780 N.2     
   5 C5             1.3084    -0.3957    -0.0360 C.2     
   6 C6             1.7895    -1.7937    -0.0755 C.ar    
   7 C7             1.7379     3.1734    -0.0504 C.2     
   8 O8             0.9287     4.0801    -0.0025 O.2     
   9 C9             3.5125     4.8407    -0.1418 C.3     
  10 N10            3.0553     3.4490    -0.1218 N.am    
  11 C11            3.4735     5.3697    -1.5769 C.3     
  12 C12            4.9235     4.9134     0.3823 C.2     
  13 O13            5.4914     3.9023     0.7375 O.2     
  14 C14           -1.1733    -0.8712     0.1522 C.3     
  15 C15           -2.2421    -0.3839    -0.8312 C.3     
  16 C16           -3.1086     0.6803    -0.1655 C.3     
  17 N17           -2.3245     1.4886     0.7704 N.3     
  18 C18           -1.2509     2.2169     0.0780 C.3     
  19 C19            2.7352    -2.1836    -1.0276 C.ar    
  20 C20            1.3056    -2.7271     0.8410 C.ar    
  21 C21            1.7596    -4.0317     0.7990 C.ar    
  22 C22            2.6934    -4.4132    -0.1508 C.ar    
  23 C23            3.1811    -3.4914    -1.0589 C.ar    
  24 C24           -3.1874     2.4109     1.5205 C.3     
  25 N25            5.5545     6.1021     0.4563 N.am    
  26 C26            6.9262     6.1728     0.9657 C.3     
  27 C27            2.0242     5.4127    -2.0654 C.3     
  28 C28            1.2369     6.4303    -1.2374 C.3     
  29 C29            1.9948     5.8224    -3.5392 C.3     
  30 F30            1.2922    -4.9368     1.6864 F       
  31 F31            3.2122    -1.2842    -1.9158 F       
  32 H32            2.8598     5.4466     0.4867 H       
  33 H33            3.7007     2.7259    -0.1599 H       
  34 H34            3.8966     6.3739    -1.6055 H       
  35 H35            4.0552     4.7118    -2.2225 H       
  36 H36           -0.8937    -1.8960    -0.0920 H       
  37 H37           -1.5676    -0.8322     1.1676 H       
  38 H38           -1.7586     0.0406    -1.7110 H       
  39 H39           -2.8676    -1.2242    -1.1324 H       
  40 H40           -3.5300     1.3297    -0.9328 H       
  41 H41           -3.9203     0.1937     0.3753 H       
  42 H42           -1.0335     3.1412     0.6133 H       
  43 H43           -1.5654     2.4490    -0.9395 H       
  44 H44            0.5780    -2.4309     1.5821 H       
  45 H45            3.0450    -5.4340    -0.1794 H       
  46 H46            3.9088    -3.7951    -1.7969 H       
  47 H47           -3.9253     1.8404     2.0846 H       
  48 H48           -2.5797     2.9990     2.2081 H       
  49 H49           -3.6977     3.0776     0.8253 H       
  50 H50            5.1003     6.9107     0.1722 H       
  51 H51            7.2664     7.2083     0.9508 H       
  52 H52            6.9540     5.7959     1.9881 H       
  53 H53            7.5789     5.5669     0.3373 H       
  54 H54            1.5736     4.4266    -1.9533 H       
  55 H55            1.2579     6.1384    -0.1874 H       
  56 H56            1.6875     7.4164    -1.3494 H       
  57 H57            0.2044     6.4609    -1.5854 H       
  58 H58            2.5557     5.0975    -4.1291 H       
  59 H59            0.9623     5.8531    -3.8872 H       
  60 H60            2.4454     6.8086    -3.6513 H       
@<TRIPOS>BOND
   1    1    2 1
   2    1    3 2
   3    1   18 1
   4    2   14 1
   5    2    5 1
   6    3    4 1
   7    3    7 1
   8    4    5 2
   9    5    6 1
  10    6   20 ar
  11    6   19 ar
  12    7    8 2
  13    7   10 am
  14    9   10 1
  15    9   11 1
  16    9   12 1
  17    9   32 1
  18   10   33 1
  19   11   27 1
  20   11   34 1
  21   11   35 1
  22   12   13 2
  23   12   25 am
  24   14   15 1
  25   14   36 1
  26   14   37 1
  27   15   16 1
  28   15   38 1
  29   15   39 1
  30   16   17 1
  31   16   40 1
  32   16   41 1
  33   17   18 1
  34   17   24 1
  35   18   42 1
  36   18   43 1
  37   19   31 1
  38   19   23 ar
  39   20   21 ar
  40   20   44 1
  41   21   22 ar
  42   21   30 1
  43   22   23 ar
  44   22   45 1
  45   23   46 1
  46   24   47 1
  47   24   48 1
  48   24   49 1
  49   25   26 1
  50   25   50 1
  51   26   51 1
  52   26   52 1
  53   26   53 1
  54   27   28 1
  55   27   29 1
  56   27   54 1
  57   28   55 1
  58   28   56 1
  59   28   57 1
  60   29   58 1
  61   29   59 1
  62   29   60 1

#	End of record

