#	Name: ASD03090097
#	Creating user name:	WinNT
#	Creation time:	15. 06. 2019 20:28

#	Modifying user name:	WinNT
#	Modification time:	15. 06. 2019 20:28

#	Program:	/corina/corina34_cracker 3.40 0067  02.08.2006

@<TRIPOS>MOLECULE
ASD03090097
  45   47    0    0    0
SMALL
NO_CHARGES


@<TRIPOS>ATOM
   1 C1             0.0383     1.4589    -0.2173 C.2     
   2 C2            -0.0092    -0.0260     0.0351 C.3     
   3 O3             1.1063     2.0162    -0.3588 O.2     
   4 N4            -1.1062     2.1668    -0.2915 N.am    
   5 C5             1.3937    -0.5756     0.0654 C.ar    
   6 C6             2.0884    -0.6281     1.2599 C.ar    
   7 C7             3.3742    -1.1311     1.2912 C.ar    
   8 C8             3.9696    -1.5846     0.1209 C.ar    
   9 C9             3.2689    -1.5303    -1.0773 C.ar    
  10 C10            1.9813    -1.0314    -1.1005 C.ar    
  11 N11            5.2700    -2.0935     0.1489 N.3     
  12 C12            6.0029    -1.7383    -1.0801 C.3     
  13 C13            7.2767    -0.9806    -0.6501 C.3     
  14 C14            7.4812    -1.4448     0.8161 C.3     
  15 C15            6.0188    -1.5702     1.3114 C.3     
  16 C16           -1.0603     3.5613    -0.4238 C.ar    
  17 C17           -2.0385     4.2217    -1.1555 C.ar    
  18 C18           -1.9937     5.5952    -1.2861 C.ar    
  19 C19           -0.9699     6.3170    -0.6848 C.ar    
  20 C20            0.0084     5.6558     0.0476 C.ar    
  21 C21           -0.0399     4.2828     0.1817 C.ar    
  22 S22           -0.9119     8.0701    -0.8517 S.3     
  23 C23            0.5719     8.5207     0.0896 C.3     
  24 F24            0.4228     8.1117     1.4192 F       
  25 F25            1.6884     7.8901    -0.4698 F       
  26 H26           -0.4948    -0.2165     0.9922 H       
  27 H27           -0.5727    -0.5121    -0.7613 H       
  28 H28           -1.9617     1.7112    -0.2533 H       
  29 H29            1.6250    -0.2750     2.1693 H       
  30 H30            3.9163    -1.1715     2.2244 H       
  31 H31            3.7289    -1.8821    -1.9889 H       
  32 H32            1.4343    -0.9933    -2.0309 H       
  33 H33            6.2753    -2.6429    -1.6239 H       
  34 H34            5.3846    -1.0974    -1.7085 H       
  35 H35            8.1257    -1.2719    -1.2685 H       
  36 H36            7.1177     0.0968    -0.6947 H       
  37 H37            7.9900    -2.4080     0.8533 H       
  38 H38            8.0251    -0.6951     1.3907 H       
  39 H39            5.6321    -0.5940     1.6037 H       
  40 H40            5.9596    -2.2684     2.1464 H       
  41 H41           -2.8342     3.6606    -1.6228 H       
  42 H42           -2.7541     6.1086    -1.8558 H       
  43 H43            0.8043     6.2164     0.5151 H       
  44 H44            0.7183     3.7692     0.7541 H       
  45 H45            0.7098     9.6014     0.0552 H       
@<TRIPOS>BOND
   1    1    2 1
   2    1    3 2
   3    1    4 am
   4    2    5 1
   5    2   26 1
   6    2   27 1
   7    4   16 1
   8    4   28 1
   9    5    6 ar
  10    5   10 ar
  11    6    7 ar
  12    6   29 1
  13    7    8 ar
  14    7   30 1
  15    8    9 ar
  16    8   11 1
  17    9   10 ar
  18    9   31 1
  19   10   32 1
  20   11   12 1
  21   11   15 1
  22   12   13 1
  23   12   33 1
  24   12   34 1
  25   13   14 1
  26   13   35 1
  27   13   36 1
  28   14   15 1
  29   14   37 1
  30   14   38 1
  31   15   39 1
  32   15   40 1
  33   16   17 ar
  34   16   21 ar
  35   17   18 ar
  36   17   41 1
  37   18   19 ar
  38   18   42 1
  39   19   20 ar
  40   19   22 1
  41   20   21 ar
  42   20   43 1
  43   21   44 1
  44   22   23 1
  45   23   24 1
  46   23   25 1
  47   23   45 1

#	End of record

