#	Name: ASD01870126
#	Creating user name:	WinNT
#	Creation time:	15. 06. 2019 19:38

#	Modifying user name:	WinNT
#	Modification time:	15. 06. 2019 19:38

#	Program:	/corina/corina34_cracker 3.40 0067  02.08.2006

@<TRIPOS>MOLECULE
ASD01870126
  33   34    0    0    0
SMALL
NO_CHARGES


@<TRIPOS>ATOM
   1 C1             2.0581    -2.2075     1.4637 C.ar    
   2 C2             1.0138    -1.7518     0.6841 C.ar    
   3 C3             1.1608    -0.6082    -0.0859 C.ar    
   4 C4             2.3526     0.0852    -0.0804 C.ar    
   5 C5             3.4170    -0.3658     0.7045 C.ar    
   6 C6             3.2636    -1.5220     1.4814 C.ar    
   7 O7             4.2902    -1.9690     2.2477 O.3     
   8 Cl8           -0.1611    -0.0472    -1.0613 Cl      
   9 C9             4.6950     0.3706     0.7149 C.2     
  10 O10            5.6191    -0.0249     1.3992 O.2     
  11 N11            4.8386     1.4819    -0.0340 N.am    
  12 C12            6.0142     2.2347     0.0499 C.ar    
  13 C13            7.2349     1.6001     0.2387 C.ar    
  14 C14            5.9641     3.6184    -0.0612 C.ar    
  15 C15            7.1267     4.3588     0.0217 C.ar    
  16 C16            8.3403     3.7240     0.2146 C.ar    
  17 C17            8.3942     2.3465     0.3207 C.ar    
  18 C18            9.7187     1.6591     0.5308 C.3     
  19 C19            7.0733     5.8600    -0.0987 C.3     
  20 F20            5.7479     6.2658    -0.2880 F       
  21 F21            7.5759     6.4398     1.0711 F       
  22 F22            7.8465     6.2681    -1.1909 F       
  23 H23            1.9345    -3.0966     2.0642 H       
  24 H24            0.0772    -2.2895     0.6735 H       
  25 H25            2.4634     0.9752    -0.6820 H       
  26 H26            4.2983    -1.6069     3.1443 H       
  27 H27            4.1265     1.7595    -0.6313 H       
  28 H28            7.2777     0.5241     0.3217 H       
  29 H29            5.0168     4.1147    -0.2125 H       
  30 H30            9.2483     4.3053     0.2783 H       
  31 H31            9.9148     1.5669     1.5991 H       
  32 H32            9.6888     0.6671     0.0800 H       
  33 H33           10.5106     2.2459     0.0654 H       
@<TRIPOS>BOND
   1    1    2 ar
   2    1    6 ar
   3    1   23 1
   4    2    3 ar
   5    2   24 1
   6    3    4 ar
   7    3    8 1
   8    4    5 ar
   9    4   25 1
  10    5    6 ar
  11    5    9 1
  12    6    7 1
  13    7   26 1
  14    9   10 2
  15    9   11 am
  16   11   12 1
  17   11   27 1
  18   12   13 ar
  19   12   14 ar
  20   13   17 ar
  21   13   28 1
  22   14   15 ar
  23   14   29 1
  24   15   16 ar
  25   15   19 1
  26   16   17 ar
  27   16   30 1
  28   17   18 1
  29   18   31 1
  30   18   32 1
  31   18   33 1
  32   19   20 1
  33   19   21 1
  34   19   22 1

#	End of record

