#	Name: ASD01900483
#	Creating user name:	WinNT
#	Creation time:	15. 06. 2019 19:52

#	Modifying user name:	WinNT
#	Modification time:	15. 06. 2019 19:52

#	Program:	/corina/corina34_cracker 3.40 0067  02.08.2006

@<TRIPOS>MOLECULE
ASD01900483
  37   40    0    0    0
SMALL
NO_CHARGES


@<TRIPOS>ATOM
   1 C1             0.1557     1.5785     0.1843 C.ar    
   2 C2             0.3686     0.2101     0.0629 C.ar    
   3 C3             1.6408    -0.3065     0.2127 C.ar    
   4 C4             2.7071     0.5417     0.4845 C.ar    
   5 C5             2.4936     1.9086     0.6060 C.ar    
   6 C6             1.2216     2.4253     0.4559 C.ar    
   7 N7            -1.1335     2.1035     0.0267 N.pl3   
   8 N8             3.9961     0.0187     0.6362 N.pl3   
   9 C9             6.3410     0.3194     1.5989 C.ar    
  10 C10            6.8914     1.2746     2.4747 C.ar    
  11 C11            8.2381     1.1771     2.8231 C.ar    
  12 C12            8.9775     0.1400     2.2895 C.ar    
  13 C13            8.3692    -0.7668     1.4313 C.ar    
  14 N14            7.0992    -0.6605     1.1128 N.ar    
  15 N15            4.7117     1.7555     2.1489 N.2     
  16 N16            5.8855     2.1450     2.8022 N.pl3   
  17 C17            4.9344     0.6899     1.4261 C.2     
  18 C18           -1.3051     3.3801    -0.4965 C.ar    
  19 C19           -2.5756     3.9460    -0.5308 C.ar    
  20 C20           -2.7326     5.2171    -1.0536 C.ar    
  21 C21           -1.6099     5.8828    -1.5265 C.ar    
  22 C22           -0.3772     5.2611    -1.4619 C.ar    
  23 N23           -0.2567     4.0486    -0.9528 N.ar    
  24 Cl24           1.0312     6.0869    -2.0518 Cl      
  25 Cl25          -0.9642    -0.8492    -0.2762 Cl      
  26 H26            1.8066    -1.3695     0.1188 H       
  27 H27            3.3225     2.5677     0.8177 H       
  28 H28            1.0561     3.4884     0.5501 H       
  29 H29           -1.9065     1.5763     0.2827 H       
  30 H30            4.2386    -0.8096     0.1935 H       
  31 H31            8.6909     1.8938     3.4922 H       
  32 H32           10.0233     0.0348     2.5379 H       
  33 H33            8.9524    -1.5757     1.0167 H       
  34 H34            5.9731     2.9090     3.3933 H       
  35 H35           -3.4280     3.3999    -0.1546 H       
  36 H36           -3.7071     5.6811    -1.0932 H       
  37 H37           -1.6989     6.8761    -1.9410 H       
@<TRIPOS>BOND
   1    1    2 ar
   2    1    6 ar
   3    1    7 1
   4    2    3 ar
   5    2   25 1
   6    3    4 ar
   7    3   26 1
   8    4    5 ar
   9    4    8 1
  10    5    6 ar
  11    5   27 1
  12    6   28 1
  13    7   18 1
  14    7   29 1
  15    8   17 1
  16    8   30 1
  17    9   10 ar
  18    9   14 ar
  19    9   17 1
  20   10   11 ar
  21   10   16 1
  22   11   12 ar
  23   11   31 1
  24   12   13 ar
  25   12   32 1
  26   13   14 ar
  27   13   33 1
  28   15   16 1
  29   15   17 2
  30   16   34 1
  31   18   19 ar
  32   18   23 ar
  33   19   20 ar
  34   19   35 1
  35   20   21 ar
  36   20   36 1
  37   21   22 ar
  38   21   37 1
  39   22   23 ar
  40   22   24 1

#	End of record

