#	Name: ASD01901522
#	Creating user name:	WinNT
#	Creation time:	15. 06. 2019 19:53

#	Modifying user name:	WinNT
#	Modification time:	15. 06. 2019 19:53

#	Program:	/corina/corina34_cracker 3.40 0067  02.08.2006

@<TRIPOS>MOLECULE
ASD01901522
  47   51    0    0    0
SMALL
NO_CHARGES


@<TRIPOS>ATOM
   1 F1             0.0021    -0.0041     0.0020 F       
   2 C2            -0.0162     1.3468     0.0094 C.ar    
   3 C3            -1.2209     2.0196     0.0303 C.ar    
   4 C4            -1.2389     3.4173     0.0380 C.ar    
   5 C5            -0.0356     4.1285     0.0245 C.ar    
   6 C6             1.1653     3.4491     0.0036 C.ar    
   7 F7             2.3288     4.1356    -0.0094 F       
   8 C8             1.1795     2.0579     0.0018 C.ar    
   9 N9             2.4020     1.3707    -0.0130 N.am    
  10 C10            3.0699     0.9894     1.0949 C.2     
  11 O11            2.7292     1.1545     2.2467 O.2     
  12 C12            4.3330     0.3117     0.6045 C.3     
  13 C13            4.3285    -1.1601     1.0156 C.3     
  14 C14            5.2182    -1.9774     0.1155 C.ar    
  15 C15            5.6954    -3.1812     0.6247 C.ar    
  16 C16            6.5051    -3.9969    -0.1366 C.ar    
  17 C17            6.8479    -3.6205    -1.4217 C.ar    
  18 C18            6.3808    -2.4253    -1.9293 C.ar    
  19 C19            5.5726    -1.6002    -1.1600 C.ar    
  20 C20            5.1312    -0.2898    -1.7720 C.3     
  21 N21            4.1755     0.3460    -0.8676 N.am    
  22 C22            3.0476     1.0070    -1.1305 C.2     
  23 O23            2.6527     1.2545    -2.2530 O.2     
  24 C24           -2.4871     4.1189     0.0591 C.1     
  25 C25           -3.5104     4.6941     0.0765 C.1     
  26 C26           -4.7585     5.3956     0.0976 C.ar    
  27 C27           -5.9625     4.6863     0.1165 C.ar    
  28 C28           -7.1607     5.3689     0.1367 C.ar    
  29 C29           -7.1727     6.7527     0.1385 C.ar    
  30 C30           -5.9846     7.4618     0.1194 C.ar    
  31 C31           -4.7785     6.7929     0.1053 C.ar    
  32 H32           -2.1487     1.4669     0.0403 H       
  33 H33           -0.0458     5.2084     0.0300 H       
  34 H34            5.2319     0.8328     0.9342 H       
  35 H35            4.6835    -1.2456     2.0427 H       
  36 H36            3.3103    -1.5446     0.9570 H       
  37 H37            5.4288    -3.4797     1.6278 H       
  38 H38            6.8711    -4.9279     0.2704 H       
  39 H39            7.4778    -4.2577    -2.0247 H       
  40 H40            6.6464    -2.1297    -2.9335 H       
  41 H41            5.9954     0.3604    -1.9076 H       
  42 H42            4.6556    -0.4771    -2.7347 H       
  43 H43           -5.9546     3.6064     0.1148 H       
  44 H44           -8.0919     4.8221     0.1510 H       
  45 H45           -8.1141     7.2818     0.1544 H       
  46 H46           -6.0017     8.5417     0.1206 H       
  47 H47           -3.8519     7.3477     0.0954 H       
@<TRIPOS>BOND
   1    1    2 1
   2    2    8 ar
   3    2    3 ar
   4    3    4 ar
   5    3   32 1
   6    4    5 ar
   7    4   24 1
   8    5    6 ar
   9    5   33 1
  10    6    7 1
  11    6    8 ar
  12    8    9 1
  13    9   22 am
  14    9   10 am
  15   10   11 2
  16   10   12 1
  17   12   21 1
  18   12   13 1
  19   12   34 1
  20   13   14 1
  21   13   35 1
  22   13   36 1
  23   14   19 ar
  24   14   15 ar
  25   15   16 ar
  26   15   37 1
  27   16   17 ar
  28   16   38 1
  29   17   18 ar
  30   17   39 1
  31   18   19 ar
  32   18   40 1
  33   19   20 1
  34   20   21 1
  35   20   41 1
  36   20   42 1
  37   21   22 am
  38   22   23 2
  39   24   25 3
  40   25   26 1
  41   26   31 ar
  42   26   27 ar
  43   27   28 ar
  44   27   43 1
  45   28   29 ar
  46   28   44 1
  47   29   30 ar
  48   29   45 1
  49   30   31 ar
  50   30   46 1
  51   31   47 1

#	End of record

