#	Name: ASD04882003
#	Creating user name:	WinNT
#	Creation time:	15. 06. 2019 20:53

#	Modifying user name:	WinNT
#	Modification time:	15. 06. 2019 20:53

#	Program:	/corina/corina34_cracker 3.40 0067  02.08.2006

@<TRIPOS>MOLECULE
ASD04882003
  81   85    0    0    0
SMALL
NO_CHARGES


@<TRIPOS>ATOM
   1 C1            -0.3876     2.8248     0.8471 C.ar    
   2 C2            -0.5542     1.4514     0.8163 C.ar    
   3 C3             0.5427     0.6172     0.6899 C.ar    
   4 C4             1.8111     1.1501     0.5937 C.ar    
   5 C5             1.9871     2.5360     0.6241 C.ar    
   6 C6             0.8747     3.3721     0.7519 C.ar    
   7 C7             3.3010     3.0968     0.5252 C.1     
   8 C8             4.3782     3.5565     0.4441 C.1     
   9 C9             5.6921     4.1172     0.3452 C.ar    
  10 C10            5.8681     5.5031     0.3755 C.ar    
  11 C11            7.1367     6.0360     0.2802 C.ar    
  12 C12            8.2336     5.2018     0.1548 C.ar    
  13 C13            8.0670     3.8284     0.1240 C.ar    
  14 C14            6.8050     3.2810     0.2236 C.ar    
  15 C15            9.6163     5.7919     0.0507 C.3     
  16 S16           10.0760     6.0623    -1.7072 S.3     
  17 C17           11.8158     5.5172    -1.4755 C.3     
  18 C18           11.7246     4.6788    -0.2162 C.2     
  19 N19           10.6274     4.8312     0.5157 N.am    
  20 O20           12.6062     3.9106     0.1057 O.2     
  21 C21           12.2836     4.6703    -2.6608 C.3     
  22 C22           12.3458     5.5287    -3.8979 C.2     
  23 N23           12.7352     4.9923    -5.0714 N.am    
  24 O24           12.0456     6.7022    -3.8375 O.2     
  25 C25           12.7957     5.8267    -6.2740 C.3     
  26 C26           13.2635     4.9799    -7.4593 C.3     
  27 C27           13.3258     5.8382    -8.6964 C.ar    
  28 C28           14.4921     6.5092    -9.0121 C.ar    
  29 C29           14.5543     7.2981   -10.1462 C.ar    
  30 C30           13.4460     7.4171   -10.9687 C.ar    
  31 C31           12.2714     6.7414   -10.6507 C.ar    
  32 C32           12.2176     5.9483    -9.5162 C.ar    
  33 O33           11.1807     6.8550   -11.4551 O.3     
  34 C34           10.0101     6.1333   -11.0666 C.3     
  35 O35           13.5053     8.1929   -12.0841 O.3     
  36 C36           14.7429     8.8571   -12.3473 C.3     
  37 C37           10.4393     4.1000     1.6942 C.ar    
  38 C38           10.4935     2.7154     1.6667 C.ar    
  39 C39           10.3054     1.9912     2.8440 C.ar    
  40 C40           10.0638     2.6658     4.0418 C.ar    
  41 C41           10.0117     4.0450     4.0585 C.ar    
  42 C42           10.2037     4.7626     2.8930 C.ar    
  43 C43           10.3612     0.5138     2.8230 C.2     
  44 N44           10.1791    -0.1837     3.9618 N.am    
  45 O45           10.5714    -0.0717     1.7787 O.2     
  46 C46            8.8960     6.3823   -12.0853 C.3     
  47 H47           -1.2487     3.4699     0.9415 H       
  48 H48           -1.5451     1.0285     0.8916 H       
  49 H49            0.4051    -0.4537     0.6669 H       
  50 H50            2.6663     0.4979     0.4954 H       
  51 H51            1.0032     4.4441     0.7757 H       
  52 H52            5.0129     6.1554     0.4731 H       
  53 H53            7.2742     7.1069     0.3032 H       
  54 H54            8.9277     3.1834     0.0258 H       
  55 H55            6.6765     2.2089     0.1993 H       
  56 H56            9.6793     6.7236     0.6129 H       
  57 H57           12.4737     6.3730    -1.3251 H       
  58 H58           13.2732     4.2650    -2.4497 H       
  59 H59           11.5823     3.8515    -2.8216 H       
  60 H60           12.9753     4.0537    -5.1197 H       
  61 H61           11.8061     6.2320    -6.4852 H       
  62 H62           13.4970     6.6455    -6.1132 H       
  63 H63           14.2531     4.5746    -7.2482 H       
  64 H64           12.5623     4.1611    -7.6201 H       
  65 H65           15.3567     6.4175    -8.3715 H       
  66 H66           15.4667     7.8216   -10.3905 H       
  67 H67           11.3074     5.4229    -9.2673 H       
  68 H68           10.2361     5.0677   -11.0286 H       
  69 H69            9.6848     6.4711   -10.0826 H       
  70 H70           14.9833     9.5201   -11.5163 H       
  71 H71           15.5350     8.1172   -12.4627 H       
  72 H72           14.6544     9.4405   -13.2638 H       
  73 H73           10.6805     2.1988     0.7369 H       
  74 H74            9.9172     2.1087     4.9553 H       
  75 H75            9.8246     4.5652     4.9863 H       
  76 H76           10.1622     5.8416     2.9124 H       
  77 H77           10.0114     0.2835     4.7952 H       
  78 H78           10.2158    -1.1529     3.9480 H       
  79 H79            9.2213     6.0445   -13.0693 H       
  80 H80            8.0031     5.8318   -11.7890 H       
  81 H81            8.6699     7.4479   -12.1233 H       
@<TRIPOS>BOND
   1    1    2 ar
   2    1    6 ar
   3    1   47 1
   4    2    3 ar
   5    2   48 1
   6    3    4 ar
   7    3   49 1
   8    4    5 ar
   9    4   50 1
  10    5    6 ar
  11    5    7 1
  12    6   51 1
  13    7    8 3
  14    8    9 1
  15    9   10 ar
  16    9   14 ar
  17   10   11 ar
  18   10   52 1
  19   11   12 ar
  20   11   53 1
  21   12   13 ar
  22   12   15 1
  23   13   14 ar
  24   13   54 1
  25   14   55 1
  26   15   16 1
  27   15   19 1
  28   15   56 1
  29   16   17 1
  30   17   18 1
  31   17   21 1
  32   17   57 1
  33   18   19 am
  34   18   20 2
  35   19   37 1
  36   21   22 1
  37   21   58 1
  38   21   59 1
  39   22   23 am
  40   22   24 2
  41   23   25 1
  42   23   60 1
  43   25   26 1
  44   25   61 1
  45   25   62 1
  46   26   27 1
  47   26   63 1
  48   26   64 1
  49   27   28 ar
  50   27   32 ar
  51   28   29 ar
  52   28   65 1
  53   29   30 ar
  54   29   66 1
  55   30   31 ar
  56   30   35 1
  57   31   32 ar
  58   31   33 1
  59   32   67 1
  60   33   34 1
  61   34   46 1
  62   34   68 1
  63   34   69 1
  64   35   36 1
  65   36   70 1
  66   36   71 1
  67   36   72 1
  68   37   38 ar
  69   37   42 ar
  70   38   39 ar
  71   38   73 1
  72   39   40 ar
  73   39   43 1
  74   40   41 ar
  75   40   74 1
  76   41   42 ar
  77   41   75 1
  78   42   76 1
  79   43   44 am
  80   43   45 2
  81   44   77 1
  82   44   78 1
  83   46   79 1
  84   46   80 1
  85   46   81 1

#	End of record

