#	Name: ASD01150841
#	Creating user name:	WinNT
#	Creation time:	15. 06. 2019 19:05

#	Modifying user name:	WinNT
#	Modification time:	15. 06. 2019 19:05

#	Program:	/corina/corina34_cracker 3.40 0067  02.08.2006

@<TRIPOS>MOLECULE
ASD01150841
  61   63    0    0    0
SMALL
NO_CHARGES


@<TRIPOS>ATOM
   1 C1            -0.0157     1.3101     0.0092 C.2     
   2 N2             0.0021    -0.0041     0.0020 N.2     
   3 C3             1.2638    -0.4448    -0.0124 C.2     
   4 C4             2.0991     0.6652    -0.0144 C.2     
   5 N5             1.2581     1.7786    -0.0004 N.pl3   
   6 C6             3.5094     0.6665    -0.0279 C.2     
   7 O7             4.1191    -0.3874    -0.0398 O.2     
   8 O8             4.1835     1.8365    -0.0275 O.3     
   9 O9            -1.1295     2.0760     0.0189 O.3     
  10 C10           -2.3855     1.3944     0.0220 C.3     
  11 C11            1.6532     3.1237     0.0026 C.ar    
  12 C12            1.3725     3.9281     1.0988 C.ar    
  13 C13            1.7630     5.2528     1.1002 C.ar    
  14 C14            2.4341     5.7789     0.0090 C.ar    
  15 C15            2.7146     4.9782    -1.0855 C.ar    
  16 C16            2.3308     3.6515    -1.0881 C.ar    
  17 F17            2.8153     7.0750     0.0122 F       
  18 N18            1.6675    -1.7743    -0.0230 N.am    
  19 C19            0.7465    -2.7582    -0.0195 C.2     
  20 O20           -0.4389    -2.4822    -0.0071 O.2     
  21 C21            1.1718    -4.1588    -0.0307 C.2     
  22 C22            0.3360    -5.2423    -0.0285 C.2     
  23 C23            1.0055    -6.4442    -0.0409 C.2     
  24 C24            2.3400    -6.3504    -0.0528 C.2     
  25 S25            2.8383    -4.7187    -0.0566 S.3     
  26 S26            0.1667    -7.9937    -0.0405 S.o2    
  27 O27           -0.7713    -7.8846    -1.1024 O.2     
  28 O28            1.2103    -8.9572    -0.0811 O.2     
  29 C29           -0.6864    -8.0463     1.5595 C.3     
  30 C30           -1.3579    -9.4098     1.7349 C.3     
  31 C31            0.3268    -7.8281     2.6850 C.3     
  32 Cl32          -1.3951    -5.1133    -0.0118 Cl      
  33 C33            5.6105     1.7631    -0.0416 C.3     
  34 C34            6.0708     1.0238    -1.2996 C.3     
  35 C35            6.1940     3.1774    -0.0389 C.3     
  36 C36            6.0946     1.0093     1.1988 C.3     
  37 H37           -3.1950     2.1244     0.0299 H       
  38 H38           -2.4644     0.7740    -0.8708 H       
  39 H39           -2.4552     0.7650     0.9091 H       
  40 H40            0.8488     3.5183     1.9499 H       
  41 H41            1.5446     5.8790     1.9526 H       
  42 H42            3.2378     5.3904    -1.9357 H       
  43 H43            2.5536     3.0263    -1.9401 H       
  44 H44            2.6122    -1.9942    -0.0329 H       
  45 H45            3.0125    -7.1954    -0.0630 H       
  46 H46           -1.4424    -7.2618     1.5941 H       
  47 H47           -0.6019   -10.1942     1.7003 H       
  48 H48           -1.8704    -9.4414     2.6964 H       
  49 H49           -2.0797    -9.5652     0.9331 H       
  50 H50            1.0828    -8.6126     2.6504 H       
  51 H51            0.8052    -6.8567     2.5600 H       
  52 H52           -0.1858    -7.8597     3.6465 H       
  53 H53            5.7259     1.5608    -2.1832 H       
  54 H54            7.1593     0.9678    -1.3103 H       
  55 H55            5.6551     0.0162    -1.3014 H       
  56 H56            5.8661     3.7041     0.8573 H       
  57 H57            7.2825     3.1214    -0.0497 H       
  58 H58            5.8491     3.7144    -0.9226 H       
  59 H59            5.6789     0.0017     1.1969 H       
  60 H60            7.1831     0.9533     1.1880 H       
  61 H61            5.7667     1.5360     2.0950 H       
@<TRIPOS>BOND
   1    1    2 2
   2    1    5 1
   3    1    9 1
   4    2    3 1
   5    3    4 2
   6    3   18 1
   7    4    5 1
   8    4    6 1
   9    5   11 1
  10    6    7 2
  11    6    8 1
  12    8   33 1
  13    9   10 1
  14   10   37 1
  15   10   38 1
  16   10   39 1
  17   11   12 ar
  18   11   16 ar
  19   12   13 ar
  20   12   40 1
  21   13   14 ar
  22   13   41 1
  23   14   15 ar
  24   14   17 1
  25   15   16 ar
  26   15   42 1
  27   16   43 1
  28   18   19 am
  29   18   44 1
  30   19   20 2
  31   19   21 1
  32   21   22 2
  33   21   25 1
  34   22   23 1
  35   22   32 1
  36   23   24 2
  37   23   26 1
  38   24   25 1
  39   24   45 1
  40   26   27 2
  41   26   28 2
  42   26   29 1
  43   29   30 1
  44   29   31 1
  45   29   46 1
  46   30   47 1
  47   30   48 1
  48   30   49 1
  49   31   50 1
  50   31   51 1
  51   31   52 1
  52   33   34 1
  53   33   36 1
  54   33   35 1
  55   34   53 1
  56   34   54 1
  57   34   55 1
  58   35   56 1
  59   35   57 1
  60   35   58 1
  61   36   59 1
  62   36   60 1
  63   36   61 1

#	End of record

