#	Name: ASD01000105
#	Creating user name:	WinNT
#	Creation time:	15. 06. 2019 18:54

#	Modifying user name:	WinNT
#	Modification time:	15. 06. 2019 18:54

#	Program:	/corina/corina34_cracker 3.40 0067  02.08.2006

@<TRIPOS>MOLECULE
ASD01000105
  62   65    0    0    0
SMALL
NO_CHARGES


@<TRIPOS>ATOM
   1 C1            -0.3968     1.5641    -0.2110 C.3     
   2 C2            -0.3300     0.0411    -0.0806 C.3     
   3 C3             0.3997    -0.3286     1.2123 C.3     
   4 C4            -2.2115     1.3920    -5.7638 C.ar    
   5 C5            -1.5799     1.0582    -4.5849 C.ar    
   6 C6            -2.3358     0.5962    -3.5061 C.ar    
   7 C7            -2.4650    -0.1732    -1.3237 C.2     
   8 C8            -1.7488    -0.5305    -0.0468 C.3     
   9 C9            -2.1453    -2.5838     1.2038 C.2     
  10 C10           -2.1686    -4.0590     1.2993 C.ar    
  11 C11           -1.1149    -4.8119     0.7786 C.ar    
  12 C12           -1.1426    -6.1880     0.8714 C.ar    
  13 C13           -3.5908     1.2738    -5.8901 C.ar    
  14 C14           -4.3513     0.8236    -4.8468 C.ar    
  15 C15           -3.7370     0.4795    -3.6442 C.ar    
  16 C16           -4.5053    -0.0095    -2.4903 C.2     
  17 C17           -1.1209    -2.7982    -0.9966 C.3     
  18 C18           -3.2416    -4.7046     1.9157 C.ar    
  19 C19           -3.2570    -6.0814     2.0020 C.ar    
  20 C20           -2.2120    -6.8221     1.4786 C.ar    
  21 C21           -2.2358    -8.3257     1.5760 C.3     
  22 N22           -1.7599     0.2559    -2.3260 N.2     
  23 N23           -1.6850    -1.9881     0.0859 N.am    
  24 N24           -3.8152    -0.3170    -1.3674 N.am    
  25 O25           -2.5412    -1.9083     2.1335 O.2     
  26 C26           -4.5310    -0.8092    -0.1877 C.3     
  27 C27           -6.2617     0.9448     0.2523 C.ar    
  28 C28           -5.0594     0.3597     0.6032 C.ar    
  29 C29           -4.3420     0.8467     1.6798 C.ar    
  30 C30           -6.7464     2.0169     0.9778 C.ar    
  31 C31           -6.0286     2.5045     2.0538 C.ar    
  32 C32           -4.8267     1.9189     2.4053 C.ar    
  33 O33           -5.7152    -0.1329    -2.5426 O.2     
  34 Cl34          -1.2742     1.9736    -7.1043 Cl      
  35 H35            0.6080     1.9797    -0.1349 H       
  36 H36           -0.8267     1.8275    -1.1773 H       
  37 H37           -1.0193     1.9701     0.5864 H       
  38 H38            0.2084    -0.3732    -0.9330 H       
  39 H39           -0.1387     0.0858     2.0647 H       
  40 H40            0.4473    -1.4136     1.3052 H       
  41 H41            1.4105     0.0787     1.1882 H       
  42 H42           -0.5077     1.1531    -4.4967 H       
  43 H43           -2.2891    -0.1117     0.8022 H       
  44 H44           -0.2799    -4.3182     0.3037 H       
  45 H45           -0.3280    -6.7718     0.4689 H       
  46 H46           -4.0669     1.5409    -6.8220 H       
  47 H47           -5.4223     0.7354    -4.9540 H       
  48 H48           -0.0680    -2.9937    -0.7933 H       
  49 H49           -1.6599    -3.7433    -1.0620 H       
  50 H50           -1.2149    -2.2602    -1.9399 H       
  51 H51           -4.0579    -4.1276     2.3246 H       
  52 H52           -4.0866    -6.5822     2.4787 H       
  53 H53           -1.7577    -8.6373     2.5047 H       
  54 H54           -3.2685    -8.6743     1.5642 H       
  55 H55           -1.6984    -8.7532     0.7295 H       
  56 H56           -5.3622    -1.4395    -0.5038 H       
  57 H57           -3.8502    -1.3905     0.4341 H       
  58 H58           -6.8202     0.5669    -0.5914 H       
  59 H59           -3.4030     0.3891     1.9544 H       
  60 H60           -7.6856     2.4742     0.7035 H       
  61 H61           -6.4072     3.3422     2.6207 H       
  62 H62           -4.2666     2.2989     3.2469 H       
@<TRIPOS>BOND
   1    1    2 1
   2    1   35 1
   3    1   36 1
   4    1   37 1
   5    2    3 1
   6    2    8 1
   7    2   38 1
   8    3   39 1
   9    3   40 1
  10    3   41 1
  11    4    5 ar
  12    4   13 ar
  13    4   34 1
  14    5    6 ar
  15    5   42 1
  16    6   15 ar
  17    6   22 1
  18    7    8 1
  19    7   22 2
  20    7   24 1
  21    8   23 1
  22    8   43 1
  23    9   10 1
  24    9   23 am
  25    9   25 2
  26   10   11 ar
  27   10   18 ar
  28   11   12 ar
  29   11   44 1
  30   12   20 ar
  31   12   45 1
  32   13   14 ar
  33   13   46 1
  34   14   15 ar
  35   14   47 1
  36   15   16 1
  37   16   24 am
  38   16   33 2
  39   17   23 1
  40   17   48 1
  41   17   49 1
  42   17   50 1
  43   18   19 ar
  44   18   51 1
  45   19   20 ar
  46   19   52 1
  47   20   21 1
  48   21   53 1
  49   21   54 1
  50   21   55 1
  51   24   26 1
  52   26   28 1
  53   26   56 1
  54   26   57 1
  55   27   28 ar
  56   27   30 ar
  57   27   58 1
  58   28   29 ar
  59   29   32 ar
  60   29   59 1
  61   30   31 ar
  62   30   60 1
  63   31   32 ar
  64   31   61 1
  65   32   62 1

#	End of record

