#	Name: ASD03240601
#	Creating user name:	WinNT
#	Creation time:	15. 06. 2019 20:35

#	Modifying user name:	WinNT
#	Modification time:	15. 06. 2019 20:35

#	Program:	/corina/corina34_cracker 3.40 0067  02.08.2006

@<TRIPOS>MOLECULE
ASD03240601
  58   64    0    0    0
SMALL
NO_CHARGES


@<TRIPOS>ATOM
   1 C1            -0.0166     1.3755     0.0096 C.ar    
   2 C2             0.0021    -0.0041     0.0020 C.ar    
   3 N3             1.1421    -0.6683    -0.0058 N.ar    
   4 C4             2.3145    -0.0481    -0.0058 C.ar    
   5 C5             2.3702     1.3442    -0.0124 C.ar    
   6 C6             1.1860     2.0698     0.0019 C.ar    
   7 N7             3.4819    -0.8059     0.0219 N.pl3   
   8 C8             4.3589    -0.7200     1.0996 C.ar    
   9 C9             4.9952     0.4881     1.4040 C.ar    
  10 C10            4.7641     1.6830     0.5625 C.2     
  11 N11            3.5938     2.0277    -0.0512 N.pl3   
  12 C12            4.6045    -1.8400     1.8827 C.ar    
  13 C13            5.4641    -1.7552     2.9612 C.ar    
  14 C14            6.0856    -0.5574     3.2700 C.ar    
  15 C15            5.8558     0.5639     2.4986 C.ar    
  16 N16            5.6754     2.5927     0.2863 N.2     
  17 C17            5.1443     3.5392    -0.5050 C.2     
  18 C18            3.8211     3.2017    -0.7355 C.2     
  19 C19            2.8470     3.9514    -1.5526 C.ar    
  20 C20            2.7469     5.3391    -1.4277 C.ar    
  21 C21            2.0248     3.2772    -2.4586 C.ar    
  22 C22            1.1172     3.9842    -3.2193 C.ar    
  23 C23            1.0198     5.3582    -3.0866 C.ar    
  24 C24            1.8348     6.0332    -2.1949 C.ar    
  25 C25            5.8461     4.7286    -1.0341 C.ar    
  26 C26            0.0256     6.1237    -3.9212 C.3     
  27 N27           -1.0528     5.2748    -4.4450 N.3     
  28 N28            7.1231     4.9196    -0.7241 N.ar    
  29 C29            7.7787     5.9722    -1.1811 C.ar    
  30 C30            7.1173     6.8819    -1.9929 C.ar    
  31 C31            5.7836     6.6528    -2.2976 C.ar    
  32 N32            5.1864     5.5781    -1.8127 N.ar    
  33 C33           -0.4760     7.4143    -3.2523 C.3     
  34 C34           -0.3904     8.0731    -4.6392 C.3     
  35 C35            0.6772     7.0199    -4.9875 C.3     
  36 H36           -0.9556     1.9091     0.0170 H       
  37 H37           -0.9306    -0.5486     0.0029 H       
  38 H38            1.2002     3.1497     0.0068 H       
  39 H39            3.6861    -1.4000    -0.7172 H       
  40 H40            4.1231    -2.7781     1.6489 H       
  41 H41            5.6526    -2.6292     3.5670 H       
  42 H42            6.7523    -0.5001     4.1177 H       
  43 H43            6.3418     1.4973     2.7417 H       
  44 H44            3.3821     5.8671    -0.7319 H       
  45 H45            2.1000     2.2049    -2.5635 H       
  46 H46            0.4811     3.4643    -3.9204 H       
  47 H47            1.7532     7.1056    -2.0961 H       
  48 H48           -0.6795     4.4532    -4.8963 H       
  49 H49           -1.7018     5.0229    -3.7146 H       
  50 H50            8.8171     6.1225    -0.9253 H       
  51 H51            7.6298     7.7505    -2.3793 H       
  52 H52            5.2407     7.3424    -2.9269 H       
  53 H53           -1.4927     7.3394    -2.8664 H       
  54 H54            0.2234     7.8306    -2.5272 H       
  55 H55           -1.3043     7.9769    -5.2254 H       
  56 H56           -0.0072     9.0932    -4.6151 H       
  57 H57            1.6924     7.3279    -4.7371 H       
  58 H58            0.5903     6.6289    -6.0012 H       
@<TRIPOS>BOND
   1    1    2 ar
   2    1    6 ar
   3    1   36 1
   4    2    3 ar
   5    2   37 1
   6    3    4 ar
   7    4    5 ar
   8    4    7 1
   9    5    6 ar
  10    5   11 1
  11    6   38 1
  12    7    8 1
  13    7   39 1
  14    8    9 ar
  15    8   12 ar
  16    9   10 1
  17    9   15 ar
  18   10   11 1
  19   10   16 2
  20   11   18 1
  21   12   13 ar
  22   12   40 1
  23   13   14 ar
  24   13   41 1
  25   14   15 ar
  26   14   42 1
  27   15   43 1
  28   16   17 1
  29   17   18 2
  30   17   25 1
  31   18   19 1
  32   19   20 ar
  33   19   21 ar
  34   20   24 ar
  35   20   44 1
  36   21   22 ar
  37   21   45 1
  38   22   23 ar
  39   22   46 1
  40   23   24 ar
  41   23   26 1
  42   24   47 1
  43   25   28 ar
  44   25   32 ar
  45   26   27 1
  46   26   33 1
  47   26   35 1
  48   27   48 1
  49   27   49 1
  50   28   29 ar
  51   29   30 ar
  52   29   50 1
  53   30   31 ar
  54   30   51 1
  55   31   32 ar
  56   31   52 1
  57   33   34 1
  58   33   53 1
  59   33   54 1
  60   34   35 1
  61   34   55 1
  62   34   56 1
  63   35   57 1
  64   35   58 1

#	End of record

