#	Name: ASD01880571
#	Creating user name:	WinNT
#	Creation time:	15. 06. 2019 19:40

#	Modifying user name:	WinNT
#	Modification time:	15. 06. 2019 19:40

#	Program:	/corina/corina34_cracker 3.40 0067  02.08.2006

@<TRIPOS>MOLECULE
ASD01880571
  49   52    0    0    0
SMALL
NO_CHARGES


@<TRIPOS>ATOM
   1 N1             0.0645     1.3760    -0.6397 N.ar    
   2 C2             0.1103     0.0791    -0.8730 C.ar    
   3 N3             1.2184    -0.6175    -0.7101 N.ar    
   4 C4             2.3361    -0.0344    -0.3028 C.ar    
   5 C5             2.3334     1.3241    -0.0469 C.ar    
   6 C6             1.1453     2.0299    -0.2289 C.ar    
   7 C7             3.5840     2.0245     0.4183 C.3     
   8 O8             4.6493     1.0778     0.5230 O.3     
   9 C9             5.8542     1.5490     0.9328 C.ar    
  10 C10            6.9345     0.6808     1.0564 C.ar    
  11 C11            8.1529     1.1588     1.4706 C.ar    
  12 C12            8.3164     2.5154     1.7699 C.ar    
  13 C13            7.2282     3.3832     1.6437 C.ar    
  14 C14            6.0094     2.8993     1.2231 C.ar    
  15 C15            9.4930     0.5068     1.7040 C.3     
  16 N16           10.3969     1.5749     2.1458 N.am    
  17 C17            9.7140     2.7320     2.1824 C.2     
  18 O18           10.1831     3.8051     2.5091 O.2     
  19 Br19          -1.4554    -0.8064    -1.4564 Br      
  20 O20            1.0938     3.3631     0.0088 O.3     
  21 C21           -0.1133     3.9810    -0.0809 C.ar    
  22 C22           -1.0445     3.8383     0.9377 C.ar    
  23 C23           -2.2705     4.4679     0.8443 C.ar    
  24 C24           -2.5702     5.2394    -0.2633 C.ar    
  25 C25           -1.6440     5.3833    -1.2798 C.ar    
  26 C26           -0.4143     4.7604    -1.1886 C.ar    
  27 C27           14.1448     1.4329     1.5996 C.3     
  28 C28           12.6682     1.6077     1.2394 C.3     
  29 C29           11.8108     1.4076     2.4907 C.3     
  30 H30            3.2384    -0.6134    -0.1720 H       
  31 H31            3.8552     2.7987    -0.2994 H       
  32 H32            3.4047     2.4791     1.3926 H       
  33 H33            6.8146    -0.3677     0.8271 H       
  34 H34            7.3437     4.4323     1.8727 H       
  35 H35            5.1689     3.5704     1.1254 H       
  36 H36            9.4086    -0.2565     2.4775 H       
  37 H37            9.8605     0.0640     0.7783 H       
  38 H38           -0.8111     3.2352     1.8027 H       
  39 H39           -2.9957     4.3570     1.6369 H       
  40 H40           -3.5296     5.7302    -0.3347 H       
  41 H41           -1.8805     5.9864    -2.1438 H       
  42 H42            0.3088     4.8731    -1.9828 H       
  43 H43           14.7556     1.5754     0.7082 H       
  44 H44           14.4246     2.1691     2.3532 H       
  45 H45           14.3063     0.4297     1.9942 H       
  46 H46           12.5067     2.6108     0.8449 H       
  47 H47           12.3884     0.8715     0.4858 H       
  48 H48           12.0905     2.1438     3.2443 H       
  49 H49           11.9723     0.4044     2.8853 H       
@<TRIPOS>BOND
   1    1    2 ar
   2    1    6 ar
   3    2    3 ar
   4    2   19 1
   5    3    4 ar
   6    4    5 ar
   7    4   30 1
   8    5    6 ar
   9    5    7 1
  10    6   20 1
  11    7    8 1
  12    7   31 1
  13    7   32 1
  14    8    9 1
  15    9   10 ar
  16    9   14 ar
  17   10   11 ar
  18   10   33 1
  19   11   12 ar
  20   11   15 1
  21   12   13 ar
  22   12   17 1
  23   13   14 ar
  24   13   34 1
  25   14   35 1
  26   15   16 1
  27   15   36 1
  28   15   37 1
  29   16   17 am
  30   16   29 1
  31   17   18 2
  32   20   21 1
  33   21   22 ar
  34   21   26 ar
  35   22   23 ar
  36   22   38 1
  37   23   24 ar
  38   23   39 1
  39   24   25 ar
  40   24   40 1
  41   25   26 ar
  42   25   41 1
  43   26   42 1
  44   27   28 1
  45   27   43 1
  46   27   44 1
  47   27   45 1
  48   28   29 1
  49   28   46 1
  50   28   47 1
  51   29   48 1
  52   29   49 1

#	End of record

