#	Name: ASD01380019
#	Creating user name:	WinNT
#	Creation time:	15. 06. 2019 19:16

#	Modifying user name:	WinNT
#	Modification time:	15. 06. 2019 19:16

#	Program:	/corina/corina34_cracker 3.40 0067  02.08.2006

@<TRIPOS>MOLECULE
ASD01380019
  66   69    0    0    0
SMALL
NO_CHARGES


@<TRIPOS>ATOM
   1 C1            -1.7440     1.1973    -0.1380 C.3     
   2 C2            -1.7490    -0.3068    -0.0456 C.2     
   3 O3            -2.6049    -0.9468    -0.6194 O.2     
   4 N4            -0.8026    -0.9410     0.6744 N.am    
   5 C5            -0.8700    -2.3298     0.8517 C.ar    
   6 C6             0.3015    -3.0753     0.9391 C.ar    
   7 C7             0.2466    -4.4426     1.1131 C.ar    
   8 C8            -0.9813    -5.0857     1.2029 C.ar    
   9 C9            -2.1673    -4.3394     1.1159 C.ar    
  10 C10           -2.1011    -2.9540     0.9448 C.ar    
  11 C11           -3.4742    -5.0124     1.2094 C.2     
  12 O12           -3.5279    -6.2168     1.3623 O.2     
  13 O13           -4.6104    -4.2926     1.1255 O.3     
  14 C14           -5.8619    -5.0220     1.2258 C.3     
  15 C15           -6.9652    -4.3142     0.4157 C.3     
  16 C16           -7.4958    -5.2519    -0.6706 C.3     
  17 O17           -8.4336    -4.5502    -1.4893 O.3     
  18 P18           -9.1924    -5.2318    -2.7349 P.3     
  19 O19           -9.8920    -6.4533    -2.2780 O.2     
  20 O20          -10.2639    -4.1954    -3.3430 O.3     
  21 P21          -11.5726    -4.3533    -4.2673 P.3     
  22 O22          -12.3931    -5.4812    -3.7722 O.2     
  23 O23          -12.4366    -2.9959    -4.2108 O.3     
  24 P24          -13.9704    -2.6321    -4.5377 P.3     
  25 O25          -14.8579    -3.6569    -3.9441 O.2     
  26 O26          -14.3243    -1.1900    -3.9153 O.3     
  27 O27          -14.1850    -2.5953    -6.1330 O.3     
  28 O28          -11.1250    -4.6418    -5.7867 O.3     
  29 O29           -8.1186    -5.6211    -3.8697 O.3     
  30 O30           -8.0212    -3.9809     1.3322 O.3     
  31 C31           -7.4191    -3.8443     2.6373 C.3     
  32 C32           -6.3869    -4.9996     2.6820 C.3     
  33 O33           -7.0201    -6.2366     3.0149 O.3     
  34 N34           -6.7483    -2.5479     2.7629 N.pl3   
  35 C35           -6.3234    -1.7577     1.7370 C.2     
  36 N36           -5.7709    -0.6786     2.2117 N.2     
  37 C37           -5.8091    -0.7138     3.5640 C.2     
  38 C38           -6.4394    -1.9068     3.9310 C.2     
  39 N39           -6.6089    -2.1934     5.2295 N.2     
  40 C40           -6.1968    -1.3797     6.1608 C.2     
  41 N41           -5.5786    -0.2065     5.8737 N.am    
  42 C42           -5.3712     0.1609     4.5894 C.2     
  43 O43           -4.8164     1.2126     4.3208 O.2     
  44 N44           -1.0356    -6.4638     1.3778 N.2     
  45 H45           -2.5781     1.5261    -0.7579 H       
  46 H46           -1.8435     1.6230     0.8605 H       
  47 H47           -0.8067     1.5309    -0.5834 H       
  48 H48           -0.0747    -0.4363     1.0700 H       
  49 H49            1.2591    -2.5808     0.8700 H       
  50 H50            1.1604    -5.0144     1.1794 H       
  51 H51           -3.0090    -2.3730     0.8774 H       
  52 H52           -5.7333    -6.0477     0.8802 H       
  53 H53           -6.5668    -3.4076    -0.0398 H       
  54 H54           -6.6666    -5.6013    -1.2858 H       
  55 H55           -7.9877    -6.1059    -0.2049 H       
  56 H56          -15.2348    -0.9057    -4.0742 H       
  57 H57          -13.6340    -1.9446    -6.5891 H       
  58 H58          -10.5830    -3.9422    -6.1765 H       
  59 H59           -7.6217    -4.8673    -4.2160 H       
  60 H60           -8.1676    -3.9677     3.4201 H       
  61 H61           -5.5822    -4.7753     3.3822 H       
  62 H62           -7.4433    -6.2404     3.8844 H       
  63 H63           -6.4286    -1.9917     0.6880 H       
  64 H64           -6.3529    -1.6482     7.1952 H       
  65 H65           -5.2864     0.3735     6.5942 H       
  66 H66           -0.2152    -6.9778     1.4373 H       
@<TRIPOS>BOND
   1    1    2 1
   2    1   45 1
   3    1   46 1
   4    1   47 1
   5    2    3 2
   6    2    4 am
   7    4    5 1
   8    4   48 1
   9    5    6 ar
  10    5   10 ar
  11    6    7 ar
  12    6   49 1
  13    7    8 ar
  14    7   50 1
  15    8    9 ar
  16    8   44 1
  17    9   10 ar
  18    9   11 1
  19   10   51 1
  20   11   12 2
  21   11   13 1
  22   13   14 1
  23   14   15 1
  24   14   32 1
  25   14   52 1
  26   15   16 1
  27   15   30 1
  28   15   53 1
  29   16   17 1
  30   16   54 1
  31   16   55 1
  32   17   18 1
  33   18   19 2
  34   18   20 1
  35   18   29 1
  36   20   21 1
  37   21   22 2
  38   21   23 1
  39   21   28 1
  40   23   24 1
  41   24   25 2
  42   24   26 1
  43   24   27 1
  44   26   56 1
  45   27   57 1
  46   28   58 1
  47   29   59 1
  48   30   31 1
  49   31   32 1
  50   31   34 1
  51   31   60 1
  52   32   33 1
  53   32   61 1
  54   33   62 1
  55   34   35 1
  56   34   38 1
  57   35   36 2
  58   35   63 1
  59   36   37 1
  60   37   38 2
  61   37   42 1
  62   38   39 1
  63   39   40 2
  64   40   41 1
  65   40   64 1
  66   41   42 am
  67   41   65 1
  68   42   43 2
  69   44   66 1

#	End of record

