#	Name: ASD03240988
#	Creating user name:	WinNT
#	Creation time:	15. 06. 2019 20:35

#	Modifying user name:	WinNT
#	Modification time:	15. 06. 2019 20:35

#	Program:	/corina/corina34_cracker 3.40 0067  02.08.2006

@<TRIPOS>MOLECULE
ASD03240988
  59   64    0    0    0
SMALL
NO_CHARGES


@<TRIPOS>ATOM
   1 C1             2.0492     3.4592    -2.1130 C.1     
   2 C2             1.0539     3.2402    -1.1070 C.ar    
   3 C3             1.2692     2.2883    -0.0926 C.ar    
   4 C4             0.2926     2.0866     0.8792 C.ar    
   5 C5            -0.8781     2.8173     0.8439 C.ar    
   6 C6            -1.0909     3.7541    -0.1537 C.ar    
   7 C7            -0.1334     3.9731    -1.1224 C.ar    
   8 N8             2.8388     3.6329    -2.9111 N.1     
   9 N9             5.9910    -0.7402    -0.0860 N.pl3   
  10 C10            6.9017    -0.5734     0.9221 C.2     
  11 N11            6.7036     0.3014     1.9241 N.2     
  12 C12            5.6291     1.0441     1.9943 C.2     
  13 C13            4.6114     0.9209     0.9526 C.ar    
  14 C14            3.4419     1.6876     0.9730 C.ar    
  15 C15            2.5256     1.5063    -0.0594 C.ar    
  16 C16            2.8097     0.5682    -1.0724 C.ar    
  17 N17            3.9289    -0.1396    -1.0573 N.ar    
  18 C18            4.8254     0.0011    -0.0962 C.ar    
  19 C19            7.9513    -1.4436     0.6608 C.2     
  20 C20            7.6526    -2.1265    -0.5116 C.2     
  21 N21            6.4887    -1.7174    -0.9565 N.2     
  22 C22            8.5216    -3.1714    -1.1627 C.3     
  23 C23            1.8391     0.3704    -2.1730 C.ar    
  24 C24            2.2845     0.2805    -3.4919 C.ar    
  25 C25            1.3752     0.0956    -4.5130 C.ar    
  26 C26            0.0241    -0.0002    -4.2310 C.ar    
  27 C27           -0.4239     0.0881    -2.9251 C.ar    
  28 C28            0.4761     0.2672    -1.8946 C.ar    
  29 C29           -0.9638    -0.2011    -5.3512 C.3     
  30 C30           -2.2185    -0.9855    -4.9327 C.3     
  31 C31           -3.0243    -0.0084    -5.8050 C.3     
  32 C32           -1.8899     1.0051    -5.5795 C.3     
  33 C33           -3.1638    -0.4584    -7.2606 C.3     
  34 O34           -4.2684     0.3860    -5.2230 O.3     
  35 N35           -0.3385    -0.7042    -6.5816 N.3     
  36 H36            0.4508     1.3579     1.6605 H       
  37 H37           -1.6332     2.6572     1.5992 H       
  38 H38           -2.0108     4.3199    -0.1710 H       
  39 H39           -0.3045     4.7082    -1.8949 H       
  40 H40            5.4957     1.7384     2.8107 H       
  41 H41            3.2555     2.3981     1.7647 H       
  42 H42            8.8405    -1.5673     1.2611 H       
  43 H43            8.2603    -4.1554    -0.7733 H       
  44 H44            8.3645    -3.1540    -2.2412 H       
  45 H45            9.5685    -2.9606    -0.9447 H       
  46 H46            3.3389     0.3559    -3.7133 H       
  47 H47            1.7188     0.0259    -5.5345 H       
  48 H48           -1.4798     0.0126    -2.7113 H       
  49 H49            0.1256     0.3316    -0.8751 H       
  50 H50           -2.2339    -2.0121    -5.2986 H       
  51 H51           -2.4457    -0.9107    -3.8693 H       
  52 H52           -2.0273     1.6241    -4.6929 H       
  53 H53           -1.6401     1.5855    -6.4677 H       
  54 H54           -3.6728    -1.4216    -7.2960 H       
  55 H55           -3.7437     0.2795    -7.8150 H       
  56 H56           -2.1744    -0.5537    -7.7079 H       
  57 H57           -4.7798     1.0006    -5.7670 H       
  58 H58            0.4789    -0.1626    -6.8194 H       
  59 H59           -0.1114    -1.6837    -6.4975 H       
@<TRIPOS>BOND
   1    1    2 1
   2    1    8 3
   3    2    3 ar
   4    2    7 ar
   5    3    4 ar
   6    3   15 1
   7    4    5 ar
   8    4   36 1
   9    5    6 ar
  10    5   37 1
  11    6    7 ar
  12    6   38 1
  13    7   39 1
  14    9   10 1
  15    9   18 1
  16    9   21 1
  17   10   11 1
  18   10   19 2
  19   11   12 2
  20   12   13 1
  21   12   40 1
  22   13   14 ar
  23   13   18 ar
  24   14   15 ar
  25   14   41 1
  26   15   16 ar
  27   16   17 ar
  28   16   23 1
  29   17   18 ar
  30   19   20 1
  31   19   42 1
  32   20   21 2
  33   20   22 1
  34   22   43 1
  35   22   44 1
  36   22   45 1
  37   23   24 ar
  38   23   28 ar
  39   24   25 ar
  40   24   46 1
  41   25   26 ar
  42   25   47 1
  43   26   27 ar
  44   26   29 1
  45   27   28 ar
  46   27   48 1
  47   28   49 1
  48   29   30 1
  49   29   32 1
  50   29   35 1
  51   30   31 1
  52   30   50 1
  53   30   51 1
  54   31   32 1
  55   31   33 1
  56   31   34 1
  57   32   52 1
  58   32   53 1
  59   33   54 1
  60   33   55 1
  61   33   56 1
  62   34   57 1
  63   35   58 1
  64   35   59 1

#	End of record

