#	Name: ASD01870172
#	Creating user name:	WinNT
#	Creation time:	15. 06. 2019 19:38

#	Modifying user name:	WinNT
#	Modification time:	15. 06. 2019 19:38

#	Program:	/corina/corina34_cracker 3.40 0067  02.08.2006

@<TRIPOS>MOLECULE
ASD01870172
  51   55    0    0    0
SMALL
NO_CHARGES


@<TRIPOS>ATOM
   1 C1            -0.0168     1.3890     0.0097 C.ar    
   2 C2             0.0021    -0.0041     0.0020 C.ar    
   3 C3             1.1787    -0.6895    -0.0125 C.ar    
   4 C4             2.3941     0.0134    -0.0203 C.ar    
   5 C5             2.3756     1.4326    -0.0130 C.ar    
   6 C6             1.1407     2.1050     0.0025 C.ar    
   7 C7             3.6272    -0.6637    -0.0358 C.ar    
   8 C8             4.7900     0.0351    -0.0436 C.ar    
   9 C9             4.7882     1.4439    -0.0361 C.ar    
  10 C10            3.5864     2.1337    -0.0214 C.ar    
  11 C11            5.8880     2.4286    -0.0415 C.2     
  12 N12            5.3952     3.6790    -0.0301 N.am    
  13 C13            3.9298     3.6021    -0.0168 C.3     
  14 C14            6.1876     4.9112    -0.0312 C.3     
  15 C15            7.0593     4.9587    -1.2899 C.3     
  16 C16            7.9406     6.2097    -1.2438 C.3     
  17 O17            8.7336     6.1885    -0.0552 O.3     
  18 C18            7.9724     6.1913     1.1542 C.3     
  19 C19            7.0923     4.9397     1.2045 C.3     
  20 C20            3.6565    -2.1704    -0.0431 C.3     
  21 C21            3.5284    -2.6685    -1.4596 C.ar    
  22 C22            4.6605    -2.8766    -2.2350 C.ar    
  23 C23            4.4979    -3.3352    -3.5309 C.ar    
  24 C24            3.2152    -3.5702    -4.0086 C.ar    
  25 N25            2.1603    -3.3599    -3.2387 N.ar    
  26 C26            2.2837    -2.9283    -1.9981 C.ar    
  27 O27            6.2235     5.0057    -2.4480 O.3     
  28 O28            7.0708     2.1485    -0.0540 O.2     
  29 O29            3.0425    -4.0194    -5.2771 O.3     
  30 H30           -0.9637     1.9083     0.0170 H       
  31 H31           -0.9306    -0.5486     0.0080 H       
  32 H32            1.1770    -1.7695    -0.0175 H       
  33 H33            1.1108     3.1846     0.0079 H       
  34 H34            5.7302    -0.4960    -0.0555 H       
  35 H35            3.5210     4.0855    -0.9040 H       
  36 H36            3.5378     4.0759     0.8832 H       
  37 H37            5.5209     5.7734    -0.0166 H       
  38 H38            7.6896     4.0703    -1.3302 H       
  39 H39            8.5937     6.2265    -2.1163 H       
  40 H40            7.3101     7.0988    -1.2444 H       
  41 H41            8.6484     6.1950     2.0092 H       
  42 H42            7.3422     7.0802     1.1850 H       
  43 H43            6.4785     4.9619     2.1049 H       
  44 H44            7.7233     4.0509     1.2146 H       
  45 H45            4.5991    -2.5175     0.3803 H       
  46 H46            2.8279    -2.5529     0.5529 H       
  47 H47            5.6458    -2.6847    -1.8365 H       
  48 H48            5.3571    -3.5075    -4.1622 H       
  49 H49            1.3995    -2.7678    -1.3990 H       
  50 H50            6.7101     5.0375    -3.2831 H       
  51 H51            3.0375    -4.9832    -5.3558 H       
@<TRIPOS>BOND
   1    1    2 ar
   2    1    6 ar
   3    1   30 1
   4    2    3 ar
   5    2   31 1
   6    3    4 ar
   7    3   32 1
   8    4    5 ar
   9    4    7 ar
  10    5    6 ar
  11    5   10 ar
  12    6   33 1
  13    7    8 ar
  14    7   20 1
  15    8    9 ar
  16    8   34 1
  17    9   10 ar
  18    9   11 1
  19   10   13 1
  20   11   12 am
  21   11   28 2
  22   12   13 1
  23   12   14 1
  24   13   35 1
  25   13   36 1
  26   14   15 1
  27   14   19 1
  28   14   37 1
  29   15   16 1
  30   15   27 1
  31   15   38 1
  32   16   17 1
  33   16   39 1
  34   16   40 1
  35   17   18 1
  36   18   19 1
  37   18   41 1
  38   18   42 1
  39   19   43 1
  40   19   44 1
  41   20   21 1
  42   20   45 1
  43   20   46 1
  44   21   22 ar
  45   21   26 ar
  46   22   23 ar
  47   22   47 1
  48   23   24 ar
  49   23   48 1
  50   24   25 ar
  51   24   29 1
  52   25   26 ar
  53   26   49 1
  54   27   50 1
  55   29   51 1

#	End of record

