#	Name: ASD06170129
#	Creating user name:	WinNT
#	Creation time:	15. 06. 2019 21:05

#	Modifying user name:	WinNT
#	Modification time:	15. 06. 2019 21:05

#	Program:	/corina/corina34_cracker 3.40 0067  02.08.2006

@<TRIPOS>MOLECULE
ASD06170129
  58   62    0    0    0
SMALL
NO_CHARGES


@<TRIPOS>ATOM
   1 C1             0.0912     1.4716    -0.0104 C.2     
   2 C2             0.0825    -0.0038    -0.0133 C.ar    
   3 C3             1.2789    -0.7113    -0.1637 C.ar    
   4 C4             1.2660    -2.0897    -0.1658 C.ar    
   5 C5             0.0634    -2.7760    -0.0188 C.ar    
   6 C6            -1.1266    -2.0749     0.1304 C.ar    
   7 C7            -1.1207    -0.6973     0.1401 C.ar    
   8 O8             1.1395     2.0735    -0.1390 O.2     
   9 N9            -1.0638     2.1520     0.1292 N.am    
  10 N10           -0.3710     5.6631     0.0557 N.am    
  11 N11            0.0507     4.3281     0.0019 N.pl3   
  12 C12           -1.0557     3.5289     0.1318 C.2     
  13 C13           -2.1467     4.3361     0.2641 C.2     
  14 C14           -1.7094     5.6697     0.2154 C.2     
  15 C15            0.4522     6.7900    -0.0344 C.ar    
  16 C16           -0.1001     8.0625     0.0342 C.ar    
  17 C17            0.7157     9.1734    -0.0552 C.ar    
  18 C18            2.0808     9.0197    -0.2132 C.ar    
  19 C19            2.6339     7.7541    -0.2818 C.ar    
  20 C20            1.8244     6.6391    -0.1869 C.ar    
  21 O21           -2.4159     6.6592     0.3023 O.2     
  22 F22            2.4210    -2.7753    -0.3111 F       
  23 O23            0.0537    -4.1333    -0.0217 O.3     
  24 N24            0.7450    -6.0612     3.5585 N.ar    
  25 C25            0.8152    -4.7526     3.4892 C.ar    
  26 C26            0.5890    -4.0687     2.3013 C.ar    
  27 C27            0.2800    -4.7741     1.1517 C.ar    
  28 C28            0.2072    -6.1825     1.2382 C.ar    
  29 C29           -0.1003    -6.9656     0.1155 C.ar    
  30 C30           -0.1617    -8.3239     0.2355 C.ar    
  31 C31            0.0795    -8.9442     1.4697 C.ar    
  32 C32            0.3802    -8.2060     2.5779 C.ar    
  33 C33            0.4512    -6.8061     2.4862 C.ar    
  34 O34            0.0125   -10.2981     1.5640 O.3     
  35 C35            0.2679   -10.8725     2.8473 C.3     
  36 O36           -0.4601    -9.0830    -0.8525 O.3     
  37 C37           -0.6958    -8.3919    -2.0808 C.3     
  38 H38            2.2115    -0.1789    -0.2785 H       
  39 H39           -2.0574    -2.6108     0.2438 H       
  40 H40           -2.0461    -0.1538     0.2614 H       
  41 H41           -1.9008     1.6717     0.2278 H       
  42 H42            0.9648     4.0228    -0.1083 H       
  43 H43           -3.1683     4.0074     0.3854 H       
  44 H44           -1.1663     8.1833     0.1569 H       
  45 H45            0.2869    10.1632    -0.0019 H       
  46 H46            2.7165     9.8900    -0.2835 H       
  47 H47            3.7004     7.6374    -0.4056 H       
  48 H48            2.2574     5.6509    -0.2361 H       
  49 H49            1.0552    -4.1917     4.3804 H       
  50 H50            0.6535    -2.9909     2.2753 H       
  51 H51           -0.2878    -6.4960    -0.8389 H       
  52 H52            0.5630    -8.6968     3.5224 H       
  53 H53            1.2740   -10.6058     3.1711 H       
  54 H54           -0.4579   -10.4926     3.5663 H       
  55 H55            0.1824   -11.9573     2.7833 H       
  56 H56           -1.5381    -7.7110    -1.9588 H       
  57 H57            0.1935    -7.8242    -2.3548 H       
  58 H58           -0.9224    -9.1133    -2.8659 H       
@<TRIPOS>BOND
   1    1    2 1
   2    1    8 2
   3    1    9 am
   4    2    3 ar
   5    2    7 ar
   6    3    4 ar
   7    3   38 1
   8    4    5 ar
   9    4   22 1
  10    5    6 ar
  11    5   23 1
  12    6    7 ar
  13    6   39 1
  14    7   40 1
  15    9   12 1
  16    9   41 1
  17   10   11 1
  18   10   14 am
  19   10   15 1
  20   11   12 1
  21   11   42 1
  22   12   13 2
  23   13   14 1
  24   13   43 1
  25   14   21 2
  26   15   16 ar
  27   15   20 ar
  28   16   17 ar
  29   16   44 1
  30   17   18 ar
  31   17   45 1
  32   18   19 ar
  33   18   46 1
  34   19   20 ar
  35   19   47 1
  36   20   48 1
  37   23   27 1
  38   24   25 ar
  39   24   33 ar
  40   25   26 ar
  41   25   49 1
  42   26   27 ar
  43   26   50 1
  44   27   28 ar
  45   28   29 ar
  46   28   33 ar
  47   29   30 ar
  48   29   51 1
  49   30   31 ar
  50   30   36 1
  51   31   32 ar
  52   31   34 1
  53   32   33 ar
  54   32   52 1
  55   34   35 1
  56   35   53 1
  57   35   54 1
  58   35   55 1
  59   36   37 1
  60   37   56 1
  61   37   57 1
  62   37   58 1

#	End of record

