#	Name: ASD00843288
#	Creating user name:	WinNT
#	Creation time:	15. 06. 2019 18:46

#	Modifying user name:	WinNT
#	Modification time:	15. 06. 2019 18:46

#	Program:	/corina/corina34_cracker 3.40 0067  02.08.2006

@<TRIPOS>MOLECULE
ASD00843288
  94   99    0    0    0
SMALL
NO_CHARGES


@<TRIPOS>ATOM
   1 N1             1.0058     1.1651    -0.3196 N.ar    
   2 C2             1.1711    -0.1206    -0.5817 C.ar    
   3 C3             1.0332    -1.0711     0.4220 C.ar    
   4 C4             0.7197    -0.6556     1.7041 C.ar    
   5 C5             0.5544     0.7028     1.9381 C.ar    
   6 C6             0.7065     1.5916     0.8928 C.ar    
   7 C7             1.2220    -2.5351     0.1184 C.3     
   8 C8             0.8762    -3.3765     1.3285 C.2     
   9 C9             0.3679    -2.9466    -1.0824 C.3     
  10 C10           -1.0694    -2.5715    -0.8287 C.2     
  11 N11           -2.0270    -2.9430    -1.7014 N.am    
  12 O12           -1.3645    -1.9354     0.1609 O.2     
  13 C13           -3.4137    -2.4891    -1.5291 C.3     
  14 C14           -4.3363    -3.7120    -1.5284 C.3     
  15 C15           -4.0956    -4.5284    -2.8003 C.3     
  16 C16           -2.6456    -5.0172    -2.8279 C.3     
  17 C17           -1.7028    -3.8045    -2.8465 C.3     
  18 C18           -5.0398    -5.7321    -2.8197 C.3     
  19 C19           -6.4911    -5.2446    -2.7938 C.3     
  20 C20           -7.4305    -6.4499    -2.8748 C.3     
  21 N21           -7.1676    -7.1948    -4.1127 N.3     
  22 C22           -5.7939    -7.7133    -4.1388 C.3     
  23 C23           -4.8056    -6.5457    -4.0956 C.3     
  24 C24           -8.1429    -8.2785    -4.2923 C.3     
  25 O25           -0.2030    -3.4381     1.8784 O.2     
  26 N26            1.9897    -4.0419     1.6791 N.am    
  27 C27            2.6805    -2.8392    -0.1364 C.ar    
  28 C28            3.0663    -3.7492     0.8402 C.ar    
  29 C29            3.5765    -2.3981    -1.0839 C.ar    
  30 C30            4.8811    -2.8624    -1.0705 C.ar    
  31 C31            5.2786    -3.7703    -0.1018 C.ar    
  32 C32            4.3796    -4.2133     0.8495 C.ar    
  33 Cl33           6.0146    -2.3096    -2.2635 Cl      
  34 F34            6.5510    -4.2242    -0.0874 F       
  35 C35            1.6608    -6.6901     2.3520 C.ar    
  36 C36            0.3845    -6.9412     1.8704 C.ar    
  37 C37            2.6088    -7.6952     2.3498 C.ar    
  38 C38            2.2864    -8.9501     1.8678 C.ar    
  39 C39            1.0146    -9.2030     1.3871 C.ar    
  40 C40            0.0632    -8.2017     1.3876 C.ar    
  41 H41            0.7651   -10.1842     1.0110 H       
  42 O42           -0.5499    -5.9544     1.8719 O.3     
  43 C43           -1.8430    -6.2845     1.3611 C.3     
  44 C44           -7.9150    -8.9502    -5.6480 C.3     
  45 C45           -7.9697    -9.3106    -3.1762 C.3     
  46 S46            2.0749    -5.0888     2.9593 S.o2    
  47 O47            3.4426    -5.1456     3.3408 O.2     
  48 O48            1.0339    -4.7166     3.8520 O.2     
  49 O49            1.4779    -0.5151    -1.8431 O.3     
  50 C50            1.5647     0.5059    -2.8391 C.3     
  51 C51            2.0080    -0.1127    -4.1664 C.3     
  52 F52            3.2199    -0.7876    -3.9846 F       
  53 F53            1.0340    -1.0142    -4.6091 F       
  54 H54            0.6058    -1.3718     2.5044 H       
  55 H55            0.3090     1.0604     2.9272 H       
  56 H56            0.5793     2.6494     1.0696 H       
  57 H57            0.7251    -2.4335    -1.9753 H       
  58 H58            0.4418    -4.0242    -1.2286 H       
  59 H59           -3.5095    -1.9585    -0.5818 H       
  60 H60           -3.6860    -1.8264    -2.3506 H       
  61 H61           -4.1231    -4.3281    -0.6548 H       
  62 H62           -5.3753    -3.3839    -1.4979 H       
  63 H63           -4.2851    -3.9044    -3.6736 H       
  64 H64           -2.4483    -5.6210    -1.9421 H       
  65 H65           -2.4813    -5.6181    -3.7223 H       
  66 H66           -1.8370    -3.2516    -3.7762 H       
  67 H67           -0.6699    -4.1434    -2.7663 H       
  68 H68           -4.8501    -6.3579    -1.9476 H       
  69 H69           -6.6758    -4.7008    -1.8673 H       
  70 H70           -6.6691    -4.5866    -3.6443 H       
  71 H71           -7.2615    -7.1005    -2.0167 H       
  72 H72           -8.4646    -6.1053    -2.8710 H       
  73 H73           -5.6326    -8.3579    -3.2748 H       
  74 H74           -5.6394    -8.2863    -5.0531 H       
  75 H75           -4.9572    -5.9081    -4.9666 H       
  76 H76           -3.7862    -6.9315    -4.0992 H       
  77 H77           -9.1523    -7.8688    -4.2549 H       
  78 H78            3.2622    -1.6908    -1.8371 H       
  79 H79            4.6959    -4.9207     1.6018 H       
  80 H80            3.6028    -7.5003     2.7247 H       
  81 H81            3.0290    -9.7343     1.8663 H       
  82 H82           -0.9301    -8.3998     1.0127 H       
  83 H83           -1.7532    -6.6012     0.3220 H       
  84 H84           -2.2712    -7.0942     1.9519 H       
  85 H85           -2.4909    -5.4100     1.4196 H       
  86 H86           -6.9056    -9.3599    -5.6854 H       
  87 H87           -8.6387    -9.7544    -5.7812 H       
  88 H88           -8.0384    -8.2149    -6.4431 H       
  89 H89           -8.1320    -8.8321    -2.2104 H       
  90 H90           -8.6934   -10.1148    -3.3095 H       
  91 H91           -6.9603    -9.7203    -3.2136 H       
  92 H92            0.5888     0.9748    -2.9648 H       
  93 H93            2.2910     1.2566    -2.5276 H       
  94 H94            2.1384     0.6747    -4.9087 H       
@<TRIPOS>BOND
   1    1    2 ar
   2    1    6 ar
   3    2    3 ar
   4    2   49 1
   5    3    4 ar
   6    3    7 1
   7    4    5 ar
   8    4   54 1
   9    5    6 ar
  10    5   55 1
  11    6   56 1
  12    7    8 1
  13    7    9 1
  14    7   27 1
  15    8   25 2
  16    8   26 am
  17    9   10 1
  18    9   57 1
  19    9   58 1
  20   10   11 am
  21   10   12 2
  22   11   13 1
  23   11   17 1
  24   13   14 1
  25   13   59 1
  26   13   60 1
  27   14   15 1
  28   14   61 1
  29   14   62 1
  30   15   16 1
  31   15   18 1
  32   15   63 1
  33   16   17 1
  34   16   64 1
  35   16   65 1
  36   17   66 1
  37   17   67 1
  38   18   19 1
  39   18   23 1
  40   18   68 1
  41   19   20 1
  42   19   69 1
  43   19   70 1
  44   20   21 1
  45   20   71 1
  46   20   72 1
  47   21   22 1
  48   21   24 1
  49   22   23 1
  50   22   73 1
  51   22   74 1
  52   23   75 1
  53   23   76 1
  54   24   44 1
  55   24   45 1
  56   24   77 1
  57   26   46 am
  58   26   28 1
  59   27   28 ar
  60   27   29 ar
  61   28   32 ar
  62   29   30 ar
  63   29   78 1
  64   30   31 ar
  65   30   33 1
  66   31   32 ar
  67   31   34 1
  68   32   79 1
  69   35   36 ar
  70   35   37 ar
  71   35   46 1
  72   36   42 1
  73   36   40 ar
  74   37   38 ar
  75   37   80 1
  76   38   39 ar
  77   38   81 1
  78   39   40 ar
  79   39   41 1
  80   40   82 1
  81   42   43 1
  82   43   83 1
  83   43   84 1
  84   43   85 1
  85   44   86 1
  86   44   87 1
  87   44   88 1
  88   45   89 1
  89   45   90 1
  90   45   91 1
  91   46   47 2
  92   46   48 2
  93   49   50 1
  94   50   51 1
  95   50   92 1
  96   50   93 1
  97   51   52 1
  98   51   53 1
  99   51   94 1

#	End of record

