#	Name: ASD03450004
#	Creating user name:	WinNT
#	Creation time:	15. 06. 2019 20:42

#	Modifying user name:	WinNT
#	Modification time:	15. 06. 2019 20:42

#	Program:	/corina/corina34_cracker 3.40 0067  02.08.2006

@<TRIPOS>MOLECULE
ASD03450004
  60   63    0    0    0
SMALL
NO_CHARGES


@<TRIPOS>ATOM
   1 N1            -0.0160     1.3251     0.0093 N.ar    
   2 C2             0.0021    -0.0041     0.0020 C.ar    
   3 C3             1.2381    -0.6713    -0.0134 C.ar    
   4 C4             2.4117     0.1017    -0.0204 C.ar    
   5 N5             2.3001     1.4256    -0.0122 N.ar    
   6 C6             1.1123     2.0131     0.0022 C.ar    
   7 N7            -0.9574    -0.9846     0.0055 N.pl3   
   8 C8            -0.3133    -2.1870    -0.0074 C.2     
   9 N9             0.9743    -2.0010    -0.0184 N.2     
  10 C10           -2.4077    -0.7782     0.0210 C.3     
  11 C11           -2.9015    -0.5762    -1.3884 C.ar    
  12 C12           -3.2977    -1.6646    -2.1462 C.ar    
  13 C13           -3.7512    -1.4778    -3.4411 C.ar    
  14 C14           -3.8078    -0.2052    -3.9772 C.ar    
  15 C15           -3.4125     0.8823    -3.2216 C.ar    
  16 C16           -2.9645     0.6986    -1.9242 C.ar    
  17 F17           -3.2416    -2.9088    -1.6227 F       
  18 F18           -2.5785     1.7619    -1.1856 F       
  19 O19            1.0526     3.3668     0.0101 O.3     
  20 C20            2.2959     4.0711     0.0020 C.3     
  21 C21            2.0288     5.5775     0.0126 C.3     
  22 C22            3.3601     6.3316     0.0040 C.3     
  23 C23            3.0930     7.8381     0.0146 C.3     
  24 N24            3.6563    -0.5028    -0.0351 N.pl3   
  25 C25            4.8694     0.3185    -0.0423 C.3     
  26 C26            6.1003    -0.5901    -0.0584 C.3     
  27 N27            7.3168     0.2334    -0.0656 N.3     
  28 C28            8.5129    -0.5917     0.1574 C.3     
  29 C29            9.7589     0.2948     0.0829 C.3     
  30 O30            9.6440     1.3515     1.0397 O.3     
  31 C31            8.4903     2.1754     0.8517 C.3     
  32 C32            7.2314     1.3080     0.9341 C.3     
  33 H33           -0.8003    -3.1510    -0.0079 H       
  34 H34           -2.8944    -1.6517     0.4548 H       
  35 H35           -2.6430     0.1028     0.6182 H       
  36 H36           -4.0604    -2.3270    -4.0326 H       
  37 H37           -4.1610    -0.0605    -4.9876 H       
  38 H38           -3.4572     1.8763    -3.6415 H       
  39 H39            2.8738     3.7983     0.8851 H       
  40 H40            2.8568     3.8078    -0.8948 H       
  41 H41            1.4510     5.8503    -0.8704 H       
  42 H42            1.4680     5.8408     0.9094 H       
  43 H43            3.9379     6.0588     0.8870 H       
  44 H44            3.9209     6.0684    -0.8928 H       
  45 H45            4.0414     8.3753     0.0084 H       
  46 H46            2.5151     8.1109    -0.8684 H       
  47 H47            2.5321     8.1013     0.9114 H       
  48 H48            3.7256    -1.4703    -0.0406 H       
  49 H49            4.8740     0.9522    -0.9292 H       
  50 H50            4.8906     0.9432     0.8507 H       
  51 H51            6.0958    -1.2238     0.8285 H       
  52 H52            6.0792    -1.2148    -0.9514 H       
  53 H53            8.4557    -1.0572     1.1414 H       
  54 H54            8.5698    -1.3648    -0.6088 H       
  55 H55           10.6439    -0.3019     0.3041 H       
  56 H56            9.8453     0.7178    -0.9180 H       
  57 H57            8.4577     2.9389     1.6290 H       
  58 H58            8.5397     2.6531    -0.1268 H       
  59 H59            6.3529     1.9217     0.7347 H       
  60 H60            7.1538     0.8729     1.9304 H       
@<TRIPOS>BOND
   1    1    2 ar
   2    1    6 ar
   3    2    3 ar
   4    2    7 1
   5    3    4 ar
   6    3    9 1
   7    4    5 ar
   8    4   24 1
   9    5    6 ar
  10    6   19 1
  11    7    8 1
  12    7   10 1
  13    8    9 2
  14    8   33 1
  15   10   11 1
  16   10   34 1
  17   10   35 1
  18   11   12 ar
  19   11   16 ar
  20   12   13 ar
  21   12   17 1
  22   13   14 ar
  23   13   36 1
  24   14   15 ar
  25   14   37 1
  26   15   16 ar
  27   15   38 1
  28   16   18 1
  29   19   20 1
  30   20   21 1
  31   20   39 1
  32   20   40 1
  33   21   22 1
  34   21   41 1
  35   21   42 1
  36   22   23 1
  37   22   43 1
  38   22   44 1
  39   23   45 1
  40   23   46 1
  41   23   47 1
  42   24   25 1
  43   24   48 1
  44   25   26 1
  45   25   49 1
  46   25   50 1
  47   26   27 1
  48   26   51 1
  49   26   52 1
  50   27   28 1
  51   27   32 1
  52   28   29 1
  53   28   53 1
  54   28   54 1
  55   29   30 1
  56   29   55 1
  57   29   56 1
  58   30   31 1
  59   31   32 1
  60   31   57 1
  61   31   58 1
  62   32   59 1
  63   32   60 1

#	End of record

