#	Name: ASD05720068
#	Creating user name:	WinNT
#	Creation time:	15. 06. 2019 21:01

#	Modifying user name:	WinNT
#	Modification time:	15. 06. 2019 21:01

#	Program:	/corina/corina34_cracker 3.40 0067  02.08.2006

@<TRIPOS>MOLECULE
ASD05720068
  40   41    0    0    0
SMALL
NO_CHARGES


@<TRIPOS>ATOM
   1 C1            -0.0143     1.2041     0.0087 C.2     
   2 C2            -1.3295     1.9397     0.0189 C.3     
   3 O3             0.0021    -0.0041     0.0020 O.2     
   4 O4             1.1389     1.8910     0.0013 O.3     
   5 C5            -0.4069     4.7414     2.4920 C.3     
   6 C6            -0.2665     3.8232     1.2750 C.3     
   7 C7            -1.4165     2.8114     1.2733 C.3     
   8 C8            -2.7481     3.5685     1.2798 C.3     
   9 C9            -2.7926     4.4965     2.4966 C.3     
  10 O10           -1.6791     5.3911     2.4527 O.3     
  11 N11           -2.4300     0.9727     0.0189 N.am    
  12 C12           -2.8746     0.4578    -1.1446 C.2     
  13 O13           -2.3626     0.7956    -2.1935 O.2     
  14 O14           -3.8859    -0.4309    -1.1446 O.3     
  15 C15           -4.3128    -0.9438    -2.4343 C.3     
  16 C16           -5.4455    -1.9181    -2.2375 C.ar    
  17 C17           -6.7527    -1.4685    -2.2430 C.ar    
  18 C18           -7.7917    -2.3623    -2.0624 C.ar    
  19 C19           -7.5235    -3.7056    -1.8768 C.ar    
  20 C20           -6.2164    -4.1553    -1.8723 C.ar    
  21 C21           -5.1776    -3.2622    -2.0571 C.ar    
  22 H22           -1.4000     2.5704    -0.8673 H       
  23 H23            1.9569     1.3754    -0.0092 H       
  24 H24           -0.3286     4.1502     3.4044 H       
  25 H25            0.3846     5.4907     2.4752 H       
  26 H26           -0.3041     4.4189     0.3630 H       
  27 H27            0.6847     3.2934     1.3262 H       
  28 H28           -1.3494     2.1815     2.1604 H       
  29 H29           -2.8358     4.1590     0.3679 H       
  30 H30           -3.5717     2.8565     1.3345 H       
  31 H31           -3.7198     5.0694     2.4831 H       
  32 H32           -2.7456     3.9021     3.4090 H       
  33 H33           -2.8387     0.7030     0.8562 H       
  34 H34           -4.6490    -0.1175    -3.0606 H       
  35 H35           -3.4778    -1.4503    -2.9183 H       
  36 H36           -6.9622    -0.4190    -2.3879 H       
  37 H37           -8.8130    -2.0109    -2.0660 H       
  38 H38           -8.3353    -4.4037    -1.7351 H       
  39 H39           -6.0068    -5.2047    -1.7269 H       
  40 H40           -4.1565    -3.6140    -2.0572 H       
@<TRIPOS>BOND
   1    1    3 2
   2    1    4 1
   3    1    2 1
   4    2    7 1
   5    2   11 1
   6    2   22 1
   7    4   23 1
   8    5    6 1
   9    5   10 1
  10    5   24 1
  11    5   25 1
  12    6    7 1
  13    6   26 1
  14    6   27 1
  15    7    8 1
  16    7   28 1
  17    8    9 1
  18    8   29 1
  19    8   30 1
  20    9   10 1
  21    9   31 1
  22    9   32 1
  23   11   12 am
  24   11   33 1
  25   12   13 2
  26   12   14 1
  27   14   15 1
  28   15   16 1
  29   15   34 1
  30   15   35 1
  31   16   17 ar
  32   16   21 ar
  33   17   18 ar
  34   17   36 1
  35   18   19 ar
  36   18   37 1
  37   19   20 ar
  38   19   38 1
  39   20   21 ar
  40   20   39 1
  41   21   40 1

#	End of record

