#	Name: ASD00841446
#	Creating user name:	WinNT
#	Creation time:	15. 06. 2019 18:42

#	Modifying user name:	WinNT
#	Modification time:	15. 06. 2019 18:42

#	Program:	/corina/corina34_cracker 3.40 0067  02.08.2006

@<TRIPOS>MOLECULE
ASD00841446
  84   89    0    0    0
SMALL
NO_CHARGES


@<TRIPOS>ATOM
   1 C1            -0.0057     1.3863     0.0349 C.ar    
   2 C2             0.0090    -0.0007     0.0178 C.ar    
   3 C3             1.2192    -0.6792    -0.0020 C.ar    
   4 C4             2.4059     0.0276    -0.0045 C.ar    
   5 C5             2.3886     1.4103     0.0130 C.ar    
   6 C6             1.1842     2.0886     0.0323 C.ar    
   7 C7             1.2387    -2.1859    -0.0201 C.3     
   8 C8             0.4942    -2.7115    -1.2289 C.2     
   9 N9             2.6178    -2.6801    -0.0119 N.am    
  10 C10            3.4635    -2.3343    -1.0027 C.2     
  11 N11            4.7591    -2.7005    -0.9414 N.am    
  12 O12            3.0576    -1.6919    -1.9519 O.2     
  13 C13            5.6728    -2.4340    -2.0628 C.3     
  14 C14            6.9194    -1.7289    -1.5178 C.3     
  15 N15            7.4922    -2.5279    -0.4263 N.3     
  16 C16            6.5582    -2.6352     0.7024 C.3     
  17 C17            5.2982    -3.3719     0.2510 C.3     
  18 C18            8.7825    -1.9766     0.0087 C.3     
  19 C19            9.2884    -2.7568     1.2252 C.3     
  20 C20           10.6605    -2.2180     1.6361 C.3     
  21 N21           11.5993    -2.3603     0.5159 N.3     
  22 C22           11.1586    -1.5813    -0.6483 C.3     
  23 C23            9.8013    -2.1012    -1.1275 C.3     
  24 H24           12.5341    -2.1001     0.7923 H       
  25 O25            0.7732    -2.5077    -2.3916 O.2     
  26 N26           -0.5341    -3.4457    -0.7719 N.am    
  27 C27            0.4677    -2.7397     1.1560 C.ar    
  28 C28           -0.5783    -3.4827     0.6227 C.ar    
  29 C29            0.6321    -2.6285     2.5183 C.ar    
  30 C30           -0.2522    -3.2623     3.3751 C.ar    
  31 C31           -1.2998    -4.0064     2.8559 C.ar    
  32 C32           -1.4651    -4.1183     1.4886 C.ar    
  33 Cl33          -0.0489    -3.1256     5.0937 Cl      
  34 F34           -2.1633    -4.6253     3.6905 F       
  35 C35           -0.9911    -5.8324    -2.0640 C.ar    
  36 C36            0.1871    -5.9895    -2.7791 C.ar    
  37 C37           -1.6649    -6.9427    -1.5925 C.ar    
  38 C38           -1.1656    -8.2093    -1.8326 C.ar    
  39 C39            0.0087    -8.3685    -2.5452 C.ar    
  40 C40            0.6859    -7.2618    -3.0191 C.ar    
  41 H41            0.3967    -9.3591    -2.7315 H       
  42 O42            0.8515    -4.8990    -3.2443 O.3     
  43 C43            2.0579    -5.1362    -3.9725 C.3     
  44 O44           -1.1600    -0.6938     0.0208 O.3     
  45 C45           -3.5697    -0.8756     0.0423 C.3     
  46 C46           -2.3673     0.0704     0.0420 C.3     
  47 S47           -1.6239    -4.2181    -1.7508 S.o2    
  48 O48           -2.8038    -4.3925    -0.9785 O.2     
  49 O49           -1.6036    -3.5309    -2.9945 O.2     
  50 H50           -0.9464     1.9167     0.0458 H       
  51 H51            3.3481    -0.5000    -0.0199 H       
  52 H52            3.3176     1.9611     0.0117 H       
  53 H53            1.1733     3.1685     0.0460 H       
  54 H54            2.9223    -3.2562     0.7066 H       
  55 H55            5.9601    -3.3747    -2.5325 H       
  56 H56            5.1791    -1.7927    -2.7929 H       
  57 H57            7.6549    -1.6224    -2.3153 H       
  58 H58            6.6448    -0.7434    -1.1418 H       
  59 H59            7.0316    -3.1859     1.5153 H       
  60 H60            6.2885    -1.6370     1.0475 H       
  61 H61            4.5570    -3.3534     1.0500 H       
  62 H62            5.5467    -4.4036     0.0021 H       
  63 H63            8.6589    -0.9268     0.2749 H       
  64 H64            8.5878    -2.6368     2.0516 H       
  65 H65            9.3737    -3.8132     0.9702 H       
  66 H66           10.5719    -1.1652     1.9042 H       
  67 H67           11.0299    -2.7810     2.4933 H       
  68 H68           11.0676    -0.5315    -0.3696 H       
  69 H69           11.8898    -1.6819    -1.4504 H       
  70 H70            9.8947    -3.1472    -1.4195 H       
  71 H71            9.4673    -1.5126    -1.9820 H       
  72 H72            1.4501    -2.0479     2.9185 H       
  73 H73           -2.2838    -4.6994     1.0905 H       
  74 H74           -2.5822    -6.8209    -1.0357 H       
  75 H75           -1.6934    -9.0758    -1.4626 H       
  76 H76            1.6026    -7.3868    -3.5762 H       
  77 H77            1.8385    -5.7425    -4.8514 H       
  78 H78            2.4864    -4.1842    -4.2856 H       
  79 H79            2.7689    -5.6629    -3.3361 H       
  80 H80           -4.4906    -0.2927     0.0585 H       
  81 H81           -3.5464    -1.4931    -0.8556 H       
  82 H82           -3.5289    -1.5149     0.9241 H       
  83 H83           -2.3906     0.6880     0.9399 H       
  84 H84           -2.4081     0.7098    -0.8398 H       
@<TRIPOS>BOND
   1    1    2 ar
   2    1    6 ar
   3    1   50 1
   4    2    3 ar
   5    2   44 1
   6    3    4 ar
   7    3    7 1
   8    4    5 ar
   9    4   51 1
  10    5    6 ar
  11    5   52 1
  12    6   53 1
  13    7    8 1
  14    7    9 1
  15    7   27 1
  16    8   25 2
  17    8   26 am
  18    9   10 am
  19    9   54 1
  20   10   11 am
  21   10   12 2
  22   11   13 1
  23   11   17 1
  24   13   14 1
  25   13   55 1
  26   13   56 1
  27   14   15 1
  28   14   57 1
  29   14   58 1
  30   15   16 1
  31   15   18 1
  32   16   17 1
  33   16   59 1
  34   16   60 1
  35   17   61 1
  36   17   62 1
  37   18   19 1
  38   18   23 1
  39   18   63 1
  40   19   20 1
  41   19   64 1
  42   19   65 1
  43   20   21 1
  44   20   66 1
  45   20   67 1
  46   21   22 1
  47   21   24 1
  48   22   23 1
  49   22   68 1
  50   22   69 1
  51   23   70 1
  52   23   71 1
  53   26   47 am
  54   26   28 1
  55   27   28 ar
  56   27   29 ar
  57   28   32 ar
  58   29   30 ar
  59   29   72 1
  60   30   31 ar
  61   30   33 1
  62   31   32 ar
  63   31   34 1
  64   32   73 1
  65   35   36 ar
  66   35   37 ar
  67   35   47 1
  68   36   42 1
  69   36   40 ar
  70   37   38 ar
  71   37   74 1
  72   38   39 ar
  73   38   75 1
  74   39   40 ar
  75   39   41 1
  76   40   76 1
  77   42   43 1
  78   43   77 1
  79   43   78 1
  80   43   79 1
  81   44   46 1
  82   45   46 1
  83   45   80 1
  84   45   81 1
  85   45   82 1
  86   46   83 1
  87   46   84 1
  88   47   48 2
  89   47   49 2

#	End of record

