#	Name: ASD01512003
#	Creating user name:	WinNT
#	Creation time:	15. 06. 2019 19:21

#	Modifying user name:	WinNT
#	Modification time:	15. 06. 2019 19:21

#	Program:	/corina/corina34_cracker 3.40 0067  02.08.2006

@<TRIPOS>MOLECULE
ASD01512003
  99  104    0    0    0
SMALL
NO_CHARGES


@<TRIPOS>ATOM
   1 C1            17.0980     2.6612     5.9624 C.ar    
   2 C2            17.4936     1.3370     5.8890 C.ar    
   3 C3            16.8549     0.4850     5.0086 C.ar    
   4 C4            15.8286     0.9591     4.2098 C.ar    
   5 C5            15.4151     2.2905     4.2688 C.ar    
   6 C6            16.0788     3.1370     5.1707 C.ar    
   7 S7            14.8093     0.1721     2.9969 S.3     
   8 C8            13.8784     1.6300     2.6159 C.2     
   9 N9            14.3799     2.6125     3.4114 N.pl3   
  10 C10           13.8382     3.9728     3.3614 C.3     
  11 C11           12.8491     1.7461     1.6944 C.2     
  12 C12           12.4062     0.7790     0.7888 C.2     
  13 N13           11.4007     1.1095    -0.0029 N.am    
  14 C14           10.8697     2.3732     0.1242 C.2     
  15 S15           11.8041     3.1521     1.4149 S.3     
  16 O16           12.9259    -0.3241     0.7307 O.2     
  17 C17            9.8433     2.9087    -0.5853 C.2     
  18 C18            9.5267     4.3334    -0.4542 C.ar    
  19 N19            8.2576     4.7375    -0.5043 N.ar    
  20 C20            7.9349     6.0110    -0.3900 C.ar    
  21 C21            8.9056     6.9768    -0.2135 C.ar    
  22 C22           10.2439     6.6011    -0.1548 C.ar    
  23 C23           10.5601     5.2630    -0.2711 C.ar    
  24 C24            7.1971     3.7442    -0.6910 C.3     
  25 C25           10.8685     0.1613    -0.9847 C.3     
  26 C26            9.7479    -0.6605    -0.3446 C.3     
  27 C27            6.7817     3.1799     0.6692 C.3     
  28 N28            5.6430     2.2748     0.4952 N.am    
  29 C29            5.0433     1.7313     1.5729 C.2     
  30 C30            3.8719     0.8003     1.3940 C.3     
  31 C31            3.3818     0.3281     2.7643 C.3     
  32 C32            2.1925    -0.6172     2.5826 C.3     
  33 O33            5.4464     1.9916     2.6868 O.2     
  34 C34            1.7024    -1.0894     3.9529 C.3     
  35 C35            0.5131    -2.0347     3.7712 C.3     
  36 N36            0.0438    -2.4868     5.0833 N.am    
  37 C37           -1.0022    -3.3323     5.1702 C.2     
  38 C38           -1.4850    -3.7973     6.5199 C.3     
  39 O39           -1.5549    -3.7188     4.1622 O.2     
  40 C40           -2.6743    -4.7426     6.3382 C.3     
  41 C41           -3.1644    -5.2148     7.7085 C.3     
  42 C42           -4.3537    -6.1601     7.5268 C.3     
  43 C43           -4.8438    -6.6323     8.8971 C.3     
  44 C44           -6.1185    -7.4873     8.7566 C.3     
  45 C45           -6.1548    -8.6504     9.7554 C.3     
  46 C46           -4.9076    -8.6861    10.6603 C.3     
  47 S47           -3.6471    -7.8102     9.6473 S.3     
  48 N48           -6.1168    -8.1469     7.4415 N.am    
  49 C49           -6.1470    -9.4749     7.6183 C.2     
  50 N50           -6.1702    -9.8505     8.9044 N.am    
  51 H51           -7.0054    -6.8639     8.8706 H       
  52 H52           -7.0593    -8.5996    10.3615 H       
  53 O53           -6.1530   -10.2669     6.6958 O.2     
  54 H54           17.5927     3.3281     6.6530 H       
  55 H55           18.2952     0.9727     6.5144 H       
  56 H56           17.1563    -0.5500     4.9435 H       
  57 H57           15.7856     4.1738     5.2440 H       
  58 H58           12.7796     3.9521     3.6204 H       
  59 H59           14.3736     4.6034     4.0711 H       
  60 H60           13.9583     4.3749     2.3554 H       
  61 H61            9.2603     2.2846    -1.2463 H       
  62 H62            6.8961     6.3028    -0.4356 H       
  63 H63            8.6281     8.0165    -0.1220 H       
  64 H64           11.0187     7.3408    -0.0172 H       
  65 H65           11.5891     4.9375    -0.2298 H       
  66 H66            6.3372     4.2159    -1.1666 H       
  67 H67            7.5638     2.9356    -1.3232 H       
  68 H68           10.4743     0.7081    -1.8413 H       
  69 H69           11.6652    -0.5055    -1.3147 H       
  70 H70            9.3520    -1.3660    -1.0751 H       
  71 H71           10.1421    -1.2073     0.5119 H       
  72 H72            8.9513     0.0063    -0.0147 H       
  73 H73            7.6172     2.6329     1.1061 H       
  74 H74            6.4976     3.9983     1.3307 H       
  75 H75            5.3206     2.0666    -0.3957 H       
  76 H76            3.0660     1.3248     0.8808 H       
  77 H77            4.1798    -0.0613     0.8016 H       
  78 H78            4.1877    -0.1964     3.2775 H       
  79 H79            3.0739     1.1897     3.3567 H       
  80 H80            1.3866    -0.0927     2.0694 H       
  81 H81            2.5004    -1.4788     1.9902 H       
  82 H82            2.5083    -1.6139     4.4661 H       
  83 H83            1.3945    -0.2278     4.5453 H       
  84 H84           -0.2929    -1.5101     3.2580 H       
  85 H85            0.8210    -2.8962     3.1788 H       
  86 H86            0.4858    -2.1776     5.8894 H       
  87 H87           -0.6790    -4.3219     7.0331 H       
  88 H88           -1.7929    -2.9358     7.1123 H       
  89 H89           -3.4802    -4.2181     5.8250 H       
  90 H90           -2.3663    -5.6042     5.7458 H       
  91 H91           -2.3585    -5.7393     8.2217 H       
  92 H92           -3.4723    -4.3532     8.3009 H       
  93 H93           -5.1596    -5.6356     7.0136 H       
  94 H94           -4.0458    -7.0217     6.9344 H       
  95 H95           -5.0193    -5.7826     9.5569 H       
  96 H96           -5.0917    -8.1534    11.5933 H       
  97 H97           -4.6008    -9.7138    10.8550 H       
  98 H98           -6.0974    -7.6935     6.5842 H       
  99 H99           -6.1936   -10.7664     9.2230 H       
@<TRIPOS>BOND
   1    1    2 ar
   2    1    6 ar
   3    1   54 1
   4    2    3 ar
   5    2   55 1
   6    3    4 ar
   7    3   56 1
   8    4    5 ar
   9    4    7 1
  10    5    6 ar
  11    5    9 1
  12    6   57 1
  13    7    8 1
  14    8    9 1
  15    8   11 2
  16    9   10 1
  17   10   58 1
  18   10   59 1
  19   10   60 1
  20   11   12 1
  21   11   15 1
  22   12   13 am
  23   12   16 2
  24   13   14 1
  25   13   25 1
  26   14   15 1
  27   14   17 2
  28   17   18 1
  29   17   61 1
  30   18   19 ar
  31   18   23 ar
  32   19   20 ar
  33   19   24 1
  34   20   21 ar
  35   20   62 1
  36   21   22 ar
  37   21   63 1
  38   22   23 ar
  39   22   64 1
  40   23   65 1
  41   24   27 1
  42   24   66 1
  43   24   67 1
  44   25   26 1
  45   25   68 1
  46   25   69 1
  47   26   70 1
  48   26   71 1
  49   26   72 1
  50   27   28 1
  51   27   73 1
  52   27   74 1
  53   28   29 am
  54   28   75 1
  55   29   30 1
  56   29   33 2
  57   30   31 1
  58   30   76 1
  59   30   77 1
  60   31   32 1
  61   31   78 1
  62   31   79 1
  63   32   34 1
  64   32   80 1
  65   32   81 1
  66   34   35 1
  67   34   82 1
  68   34   83 1
  69   35   36 1
  70   35   84 1
  71   35   85 1
  72   36   37 am
  73   36   86 1
  74   37   38 1
  75   37   39 2
  76   38   40 1
  77   38   87 1
  78   38   88 1
  79   40   41 1
  80   40   89 1
  81   40   90 1
  82   41   42 1
  83   41   91 1
  84   41   92 1
  85   42   43 1
  86   42   93 1
  87   42   94 1
  88   43   44 1
  89   43   47 1
  90   43   95 1
  91   44   45 1
  92   44   48 1
  93   44   51 1
  94   45   46 1
  95   45   52 1
  96   45   50 1
  97   46   47 1
  98   46   96 1
  99   46   97 1
 100   48   49 am
 101   48   98 1
 102   49   50 am
 103   49   53 2
 104   50   99 1

#	End of record

