#	Name: ASD08070047
#	Creating user name:	WinNT
#	Creation time:	15. 06. 2019 21:14

#	Modifying user name:	WinNT
#	Modification time:	15. 06. 2019 21:14

#	Program:	/corina/corina34_cracker 3.40 0067  02.08.2006

@<TRIPOS>MOLECULE
ASD08070047
  40   40    0    0    0
SMALL
NO_CHARGES


@<TRIPOS>ATOM
   1 N1             2.0844     0.5961    -0.0321 N.pl3   
   2 N2             1.4089    -0.4963    -0.0412 N.2     
   3 C3             0.1234    -0.2510    -0.0337 C.2     
   4 C4            -0.0481     1.1350    -0.0183 C.2     
   5 C5             1.2313     1.6628    -0.0176 C.2     
   6 C6             1.5990     3.0877    -0.0034 C.2     
   7 O7             2.7673     3.4134     0.0873 O.2     
   8 N8             0.6411     4.0318    -0.0908 N.am    
   9 C9            -0.9765    -1.2812    -0.0409 C.3     
  10 C10            3.5467     0.6844    -0.0312 C.3     
  11 C11            3.1532     5.7872    -3.1539 C.3     
  12 C12            2.7179     5.2638    -1.7837 C.3     
  13 C13            1.4322     5.9720    -1.3521 C.3     
  14 C14            0.9969     5.4487     0.0181 C.3     
  15 C15           -0.2163     6.2432     0.5056 C.3     
  16 C16           -0.5749     5.8055     1.9272 C.3     
  17 C17           -1.7881     6.6000     2.4147 C.3     
  18 H18           -0.9809     1.6793    -0.0095 H       
  19 H19           -0.2840     3.7730    -0.2259 H       
  20 H20           -1.2381    -1.5405     0.9849 H       
  21 H21           -1.8518    -0.8746    -0.5475 H       
  22 H22           -0.6350    -2.1736    -0.5655 H       
  23 H23            3.9147     0.6289    -1.0557 H       
  24 H24            3.8533     1.6309     0.4142 H       
  25 H25            3.9602    -0.1408     0.5486 H       
  26 H26            3.3326     6.8605    -3.0926 H       
  27 H27            4.0691     5.2826    -3.4613 H       
  28 H28            2.3678     5.5912    -3.8839 H       
  29 H29            2.5385     4.1904    -1.8449 H       
  30 H30            3.5033     5.4598    -1.0536 H       
  31 H31            1.6116     7.0454    -1.2909 H       
  32 H32            0.6468     5.7760    -2.0821 H       
  33 H33            1.8160     5.5641     0.7280 H       
  34 H34            0.0207     7.3071     0.5020 H       
  35 H35           -1.0622     6.0572    -0.1561 H       
  36 H36           -0.8120     4.7416     1.9308 H       
  37 H37            0.2710     5.9915     2.5889 H       
  38 H38           -1.5511     7.6639     2.4110 H       
  39 H39           -2.6341     6.4140     1.7530 H       
  40 H40           -2.0436     6.2882     3.4274 H       
@<TRIPOS>BOND
   1    1    2 1
   2    1    5 1
   3    1   10 1
   4    2    3 2
   5    3    4 1
   6    3    9 1
   7    4    5 2
   8    4   18 1
   9    5    6 1
  10    6    7 2
  11    6    8 am
  12    8   14 1
  13    8   19 1
  14    9   20 1
  15    9   21 1
  16    9   22 1
  17   10   23 1
  18   10   24 1
  19   10   25 1
  20   11   12 1
  21   11   26 1
  22   11   27 1
  23   11   28 1
  24   12   13 1
  25   12   29 1
  26   12   30 1
  27   13   14 1
  28   13   31 1
  29   13   32 1
  30   14   15 1
  31   14   33 1
  32   15   16 1
  33   15   34 1
  34   15   35 1
  35   16   17 1
  36   16   36 1
  37   16   37 1
  38   17   38 1
  39   17   39 1
  40   17   40 1

#	End of record

