#	Name: ASD01914863
#	Creating user name:	WinNT
#	Creation time:	15. 06. 2019 20:04

#	Modifying user name:	WinNT
#	Modification time:	15. 06. 2019 20:04

#	Program:	/corina/corina34_cracker 3.40 0067  02.08.2006

@<TRIPOS>MOLECULE
ASD01914863
  56   60    0    0    0
SMALL
NO_CHARGES


@<TRIPOS>ATOM
   1 N1             0.0273     1.3908    -0.1029 N.2     
   2 C2            -0.0390     0.0594     0.0782 C.2     
   3 C3             1.2319    -0.4205     0.1477 C.2     
   4 N4             2.0696     0.6500     0.0046 N.pl3   
   5 C5             1.2873     1.7578    -0.1488 C.2     
   6 C6            -1.2815    -0.7449     0.1842 C.ar    
   7 C7            -2.5257    -0.1236     0.0955 C.ar    
   8 C8            -1.2071    -2.1241     0.3669 C.ar    
   9 C9            -2.3648    -2.8697     0.4647 C.ar    
  10 C10           -3.5998    -2.2495     0.3815 C.ar    
  11 C11           -3.6797    -0.8767     0.1943 C.ar    
  12 C12            1.7771     3.1408    -0.3364 C.ar    
  13 C13            3.0857     3.4744     0.0148 C.ar    
  14 C14            3.5366     4.7661    -0.1631 C.ar    
  15 C15            2.6942     5.7299    -0.6880 C.ar    
  16 C16            1.3956     5.4056    -1.0382 C.ar    
  17 C17            0.9343     4.1162    -0.8706 C.ar    
  18 C18            3.5341     0.6150     0.0149 C.3     
  19 C19            4.0323     0.8476     1.4180 C.2     
  20 O20            3.2419     1.0251     2.3205 O.2     
  21 N21            5.3563     0.8582     1.6699 N.am    
  22 C22            5.8638     1.0834     3.0318 C.3     
  23 C23            6.3318     0.6389     0.5912 C.3     
  24 C24            7.3064    -0.4583     1.0319 C.3     
  25 N25            7.8883    -0.0987     2.3319 N.3     
  26 C26            6.8579    -0.0323     3.3715 C.3     
  27 C27            8.8925    -0.9835     2.6846 C.ar    
  28 N28            9.9107    -1.1694     1.8575 N.ar    
  29 N29            8.8154    -1.6205     3.8439 N.ar    
  30 C30            9.7584    -2.4723     4.2113 C.ar    
  31 C31           10.8352    -2.6943     3.3673 C.ar    
  32 C32           10.8869    -2.0074     2.1645 C.ar    
  33 F33           -4.8870    -0.2757     0.1136 F       
  34 F34           -4.7301    -2.9833     0.4772 F       
  35 H35            1.5234    -1.4507     0.2893 H       
  36 H36           -2.5878     0.9448    -0.0499 H       
  37 H37           -0.2446    -2.6096     0.4317 H       
  38 H38           -2.3070    -3.9388     0.6059 H       
  39 H39            3.7441     2.7231     0.4253 H       
  40 H40            4.5492     5.0256     0.1083 H       
  41 H41            3.0517     6.7398    -0.8246 H       
  42 H42            0.7429     6.1625    -1.4474 H       
  43 H43           -0.0796     3.8643    -1.1444 H       
  44 H44            3.8767    -0.3586    -0.3356 H       
  45 H45            3.9208     1.3942    -0.6418 H       
  46 H46            6.3669     2.0492     3.0801 H       
  47 H47            5.0350     1.0633     3.7395 H       
  48 H48            5.8121     0.3251    -0.3142 H       
  49 H49            6.8806     1.5612     0.4007 H       
  50 H50            6.7726    -1.4044     1.1215 H       
  51 H51            8.1012    -0.5573     0.2925 H       
  52 H52            7.3250     0.1778     4.3337 H       
  53 H53            6.3310    -0.9851     3.4229 H       
  54 H54            9.6902    -2.9882     5.1577 H       
  55 H55           11.6191    -3.3842     3.6429 H       
  56 H56           11.7123    -2.1577     1.4844 H       
@<TRIPOS>BOND
   1    1    2 1
   2    1    5 2
   3    2    3 2
   4    2    6 1
   5    3    4 1
   6    3   35 1
   7    4    5 1
   8    4   18 1
   9    5   12 1
  10    6    7 ar
  11    6    8 ar
  12    7   11 ar
  13    7   36 1
  14    8    9 ar
  15    8   37 1
  16    9   10 ar
  17    9   38 1
  18   10   11 ar
  19   10   34 1
  20   11   33 1
  21   12   13 ar
  22   12   17 ar
  23   13   14 ar
  24   13   39 1
  25   14   15 ar
  26   14   40 1
  27   15   16 ar
  28   15   41 1
  29   16   17 ar
  30   16   42 1
  31   17   43 1
  32   18   19 1
  33   18   44 1
  34   18   45 1
  35   19   20 2
  36   19   21 am
  37   21   22 1
  38   21   23 1
  39   22   26 1
  40   22   46 1
  41   22   47 1
  42   23   24 1
  43   23   48 1
  44   23   49 1
  45   24   25 1
  46   24   50 1
  47   24   51 1
  48   25   26 1
  49   25   27 1
  50   26   52 1
  51   26   53 1
  52   27   28 ar
  53   27   29 ar
  54   28   32 ar
  55   29   30 ar
  56   30   31 ar
  57   30   54 1
  58   31   32 ar
  59   31   55 1
  60   32   56 1

#	End of record

