#	Name: ASD02030513
#	Creating user name:	WinNT
#	Creation time:	15. 06. 2019 20:15

#	Modifying user name:	WinNT
#	Modification time:	15. 06. 2019 20:15

#	Program:	/corina/corina34_cracker 3.40 0067  02.08.2006

@<TRIPOS>MOLECULE
ASD02030513
  62   66    0    0    0
SMALL
NO_CHARGES


@<TRIPOS>ATOM
   1 N1            -0.0329     1.2430     0.3469 N.am    
   2 C2            -0.2586    -0.2090     0.3696 C.3     
   3 C3            -1.3000    -0.5263     1.4498 C.3     
   4 N4            -2.4528     0.3670     1.2675 N.am    
   5 C5            -2.2271     1.8190     1.2448 C.3     
   6 C6            -1.1863     2.1364     0.1702 C.3     
   7 C7             1.2090     1.7465     0.4911 C.2     
   8 C8             2.3402     0.8464     0.8007 C.2     
   9 N9             3.5693     1.2186     1.0864 N.2     
  10 N10            2.2927    -0.4977     0.8456 N.2     
  11 C11            3.4930    -0.9192     1.1526 C.2     
  12 N12            4.2807     0.1657     1.3001 N.pl3   
  13 O13            1.3989     2.9407     0.3667 O.2     
  14 C14           -3.6946    -0.1365     1.1233 C.2     
  15 C15           -3.8932    -1.5907     1.0417 C.2     
  16 O16           -4.6512     0.6125     1.0606 O.2     
  17 C17           -0.7357     3.5922     0.3059 C.3     
  18 C18           -1.7939     1.9104    -1.2157 C.3     
  19 C19            5.6428     0.1505     1.6298 C.ar    
  20 C20            6.3421     1.3433     1.7517 C.ar    
  21 C21            7.6855     1.3248     2.0775 C.ar    
  22 C22            8.3324     0.1186     2.2812 C.ar    
  23 C23            7.6374    -1.0707     2.1602 C.ar    
  24 C24            6.2940    -1.0579     1.8406 C.ar    
  25 Cl25           8.5616     2.8157     2.2304 Cl      
  26 C26           -5.0726    -2.2043     0.7642 C.2     
  27 C27           -4.7976    -3.6405     0.7876 C.ar    
  28 C28           -3.4296    -3.7618     1.0878 C.ar    
  29 O29           -2.9302    -2.5176     1.2256 O.3     
  30 C30           -5.5755    -4.7844     0.5848 C.ar    
  31 C31           -5.0026    -6.0208     0.6792 C.ar    
  32 C32           -3.6526    -6.1509     0.9752 C.ar    
  33 C33           -2.8647    -5.0338     1.1799 C.ar    
  34 O34           -1.5436    -5.1744     1.4687 O.3     
  35 C35           -1.0345    -6.5074     1.5454 C.3     
  36 C36           -6.3968    -1.5398     0.4883 C.3     
  37 H37           -0.6278    -0.5371    -0.6021 H       
  38 H38            0.6756    -0.7209     0.6005 H       
  39 H39           -1.6220    -1.5632     1.3543 H       
  40 H40           -0.8648    -0.3652     2.4361 H       
  41 H41           -3.1613     2.3308     1.0138 H       
  42 H42           -1.8578     2.1470     2.2165 H       
  43 H43            3.7970    -1.9489     1.2696 H       
  44 H44           -0.1966     3.7197     1.2446 H       
  45 H45           -0.0809     3.8490    -0.5269 H       
  46 H46           -1.6084     4.2451     0.2966 H       
  47 H47           -2.6578     2.5625    -1.3445 H       
  48 H48           -1.0504     2.1372    -1.9798 H       
  49 H49           -2.1064     0.8704    -1.3102 H       
  50 H50            5.8374     2.2847     1.5920 H       
  51 H51            9.3821     0.1061     2.5350 H       
  52 H52            8.1450    -2.0106     2.3195 H       
  53 H53            5.7520    -1.9874     1.7467 H       
  54 H54           -6.6265    -4.6908     0.3546 H       
  55 H55           -5.6045    -6.9038     0.5227 H       
  56 H56           -3.2135    -7.1350     1.0465 H       
  57 H57           -1.5646    -7.0545     2.3251 H       
  58 H58           -1.1798    -7.0075     0.5879 H       
  59 H59            0.0291    -6.4771     1.7818 H       
  60 H60           -6.4940    -1.3534    -0.5812 H       
  61 H61           -7.2060    -2.1911     0.8186 H       
  62 H62           -6.4482    -0.5942     1.0280 H       
@<TRIPOS>BOND
   1    1    2 1
   2    1    7 am
   3    1    6 1
   4    2    3 1
   5    2   37 1
   6    2   38 1
   7    3    4 1
   8    3   39 1
   9    3   40 1
  10    4    5 1
  11    4   14 am
  12    5    6 1
  13    5   41 1
  14    5   42 1
  15    6   17 1
  16    6   18 1
  17    7    8 1
  18    7   13 2
  19    8    9 2
  20    8   10 1
  21    9   12 1
  22   10   11 2
  23   11   12 1
  24   11   43 1
  25   12   19 1
  26   14   15 1
  27   14   16 2
  28   15   26 2
  29   15   29 1
  30   17   44 1
  31   17   45 1
  32   17   46 1
  33   18   47 1
  34   18   48 1
  35   18   49 1
  36   19   20 ar
  37   19   24 ar
  38   20   21 ar
  39   20   50 1
  40   21   22 ar
  41   21   25 1
  42   22   23 ar
  43   22   51 1
  44   23   24 ar
  45   23   52 1
  46   24   53 1
  47   26   27 1
  48   26   36 1
  49   27   28 ar
  50   27   30 ar
  51   28   29 1
  52   28   33 ar
  53   30   31 ar
  54   30   54 1
  55   31   32 ar
  56   31   55 1
  57   32   33 ar
  58   32   56 1
  59   33   34 1
  60   34   35 1
  61   35   57 1
  62   35   58 1
  63   35   59 1
  64   36   60 1
  65   36   61 1
  66   36   62 1

#	End of record

