#	Name: ASD01478024
#	Creating user name:	WinNT
#	Creation time:	15. 06. 2019 19:21

#	Modifying user name:	WinNT
#	Modification time:	15. 06. 2019 19:21

#	Program:	/corina/corina34_cracker 3.40 0067  02.08.2006

@<TRIPOS>MOLECULE
ASD01478024
  79   81    0    0    0
SMALL
NO_CHARGES


@<TRIPOS>ATOM
   1 C1            -0.7206     0.0845    -1.9172 C.3     
   2 C2            -0.9020    -1.3727    -2.3680 C.3     
   3 C3             0.7770     0.3918    -1.8269 C.3     
   4 O4             1.3217    -0.1969    -0.6506 O.3     
   5 C5             0.5255    -0.0159     0.5228 C.3     
   6 O6            -0.0053    -1.2789     0.9359 O.3     
   7 C7            -1.0656    -1.7469     0.1011 C.3     
   8 C8            -0.4948    -2.2873    -1.2061 C.3     
   9 C9            -1.8314     2.1374    -2.4152 C.2     
  10 O10           -1.3422     0.9733    -2.8826 O.3     
  11 N11           -2.4210     3.0077    -3.2587 N.am    
  12 O12           -1.7414     2.4033    -1.2330 O.2     
  13 C13           -1.8318     5.3135    -2.6953 C.3     
  14 C14           -2.9533     4.2743    -2.7501 C.3     
  15 C15           -4.0634     4.7705    -3.6788 C.3     
  16 C16           -4.7036     6.0258    -3.0829 C.3     
  17 N17           -5.8596     6.4164    -3.8938 N.am    
  18 S18           -7.3785     5.9137    -3.4666 S.o2    
  19 C19           -8.0498     7.1376    -2.3914 C.ar    
  20 C20           -8.7698     8.1958    -2.9144 C.ar    
  21 C21           -9.2971     9.1567    -2.0736 C.ar    
  22 C22           -9.1037     9.0593    -0.7033 C.ar    
  23 C23           -8.3808     7.9966    -0.1810 C.ar    
  24 C24           -7.8604     7.0352    -1.0256 C.ar    
  25 O25           -8.1610     5.9485    -4.6522 O.2     
  26 O26           -7.2073     4.7411    -2.6825 O.2     
  27 C27           -5.6718     7.2516    -5.0827 C.3     
  28 C28           -5.1367     8.6224    -4.6636 C.3     
  29 C29           -4.7990     9.4412    -5.9111 C.3     
  30 C30           -6.2003     9.3563    -3.8443 C.3     
  31 O31           -3.5102     5.0799    -4.9595 O.3     
  32 C32           -0.7968     4.8829    -1.6880 C.ar    
  33 C33            0.2673     4.0946    -2.0843 C.ar    
  34 C34            1.2167     3.6996    -1.1604 C.ar    
  35 C35            1.1021     4.0933     0.1597 C.ar    
  36 C36            0.0385     4.8824     0.5558 C.ar    
  37 C37           -0.9085     5.2810    -0.3690 C.ar    
  38 O38           -9.6210    10.0035     0.1260 O.3     
  39 C39           -9.3824     9.8391     1.5253 C.3     
  40 H40           -1.1817     0.2244    -0.9395 H       
  41 H41           -1.9456    -1.5503    -2.6276 H       
  42 H42           -0.2684    -1.5719    -3.2323 H       
  43 H43            1.2834    -0.0139    -2.7028 H       
  44 H44            0.9238     1.4713    -1.7930 H       
  45 H45            1.1424     0.3978     1.3206 H       
  46 H46           -0.2939     0.6689     0.3042 H       
  47 H47           -1.6080    -2.5404     0.6151 H       
  48 H48           -1.7474    -0.9241    -0.1140 H       
  49 H49           -0.8811    -3.2912    -1.3825 H       
  50 H50            0.5925    -2.3252    -1.1385 H       
  51 H51           -2.4929     2.7954    -4.2024 H       
  52 H52           -1.3684     5.4002    -3.6780 H       
  53 H53           -2.2448     6.2786    -2.4019 H       
  54 H54           -3.3576     4.1228    -1.7493 H       
  55 H55           -4.8201     3.9936    -3.7879 H       
  56 H56           -5.0284     5.8190    -2.0632 H       
  57 H57           -3.9750     6.8364    -3.0749 H       
  58 H58           -8.9198     8.2714    -3.9813 H       
  59 H59           -9.8592     9.9832    -2.4827 H       
  60 H60           -8.2289     7.9185     0.8855 H       
  61 H61           -7.2976     6.2078    -0.6195 H       
  62 H62           -4.9588     6.7730    -5.7540 H       
  63 H63           -6.6262     7.3751    -5.5944 H       
  64 H64           -4.2385     8.4927    -4.0599 H       
  65 H65           -5.6973     9.5708    -6.5148 H       
  66 H66           -4.4178    10.4178    -5.6125 H       
  67 H67           -4.0413     8.9184    -6.4948 H       
  68 H68           -7.0961     9.4920    -4.4503 H       
  69 H69           -6.4459     8.7696    -2.9591 H       
  70 H70           -5.8165    10.3300    -3.5399 H       
  71 H71           -2.8940     5.8251    -4.9521 H       
  72 H72            0.3568     3.7870    -3.1157 H       
  73 H73            2.0477     3.0831    -1.4699 H       
  74 H74            1.8434     3.7841     0.8817 H       
  75 H75           -0.0512     5.1897     1.5873 H       
  76 H76           -1.7375     5.9006    -0.0602 H       
  77 H77           -9.8082     8.8923     1.8577 H       
  78 H78           -8.3088     9.8406     1.7134 H       
  79 H79           -9.8483    10.6589     2.0721 H       
@<TRIPOS>BOND
   1    1    2 1
   2    1    3 1
   3    1   10 1
   4    1   40 1
   5    2    8 1
   6    2   41 1
   7    2   42 1
   8    3    4 1
   9    3   43 1
  10    3   44 1
  11    4    5 1
  12    5    6 1
  13    5   45 1
  14    5   46 1
  15    6    7 1
  16    7    8 1
  17    7   47 1
  18    7   48 1
  19    8   49 1
  20    8   50 1
  21    9   10 1
  22    9   11 am
  23    9   12 2
  24   11   14 1
  25   11   51 1
  26   13   14 1
  27   13   32 1
  28   13   52 1
  29   13   53 1
  30   14   15 1
  31   14   54 1
  32   15   16 1
  33   15   31 1
  34   15   55 1
  35   16   17 1
  36   16   56 1
  37   16   57 1
  38   17   18 am
  39   17   27 1
  40   18   19 1
  41   18   25 2
  42   18   26 2
  43   19   20 ar
  44   19   24 ar
  45   20   21 ar
  46   20   58 1
  47   21   22 ar
  48   21   59 1
  49   22   23 ar
  50   22   38 1
  51   23   24 ar
  52   23   60 1
  53   24   61 1
  54   27   28 1
  55   27   62 1
  56   27   63 1
  57   28   29 1
  58   28   30 1
  59   28   64 1
  60   29   65 1
  61   29   66 1
  62   29   67 1
  63   30   68 1
  64   30   69 1
  65   30   70 1
  66   31   71 1
  67   32   33 ar
  68   32   37 ar
  69   33   34 ar
  70   33   72 1
  71   34   35 ar
  72   34   73 1
  73   35   36 ar
  74   35   74 1
  75   36   37 ar
  76   36   75 1
  77   37   76 1
  78   38   39 1
  79   39   77 1
  80   39   78 1
  81   39   79 1

#	End of record

