#	Name: ASD02560353
#	Creating user name:	WinNT
#	Creation time:	15. 06. 2019 20:25

#	Modifying user name:	WinNT
#	Modification time:	15. 06. 2019 20:25

#	Program:	/corina/corina34_cracker 3.40 0067  02.08.2006

@<TRIPOS>MOLECULE
ASD02560353
  52   55    0    0    0
SMALL
NO_CHARGES


@<TRIPOS>ATOM
   1 C1            -0.0082     1.4090     0.1365 C.2     
   2 C2             0.0074     0.0031     0.1006 C.2     
   3 C3             1.1777    -0.6644     0.0547 C.2     
   4 N4             2.3660     0.0142     0.0425 N.pl3   
   5 C5             2.3817     1.3896     0.0764 C.2     
   6 C6             1.1636     2.0982     0.1244 C.2     
   7 C7             3.6693    -0.4001    -0.0007 C.2     
   8 C8             4.4427     0.7147     0.0077 C.2     
   9 N9             3.6441     1.7871     0.0545 N.2     
  10 C10            5.9491     0.7407    -0.0291 C.3     
  11 N11            4.1201    -1.7252    -0.0446 N.3     
  12 C12            2.9997    -2.6669     0.0813 C.3     
  13 C13            6.4470     1.5042    -1.2767 C.3     
  14 C14            2.3196    -2.8352    -1.2789 C.3     
  15 C15            6.5055     1.5578     1.1579 C.3     
  16 C16            3.5239    -4.0221     0.5606 C.3     
  17 C17            2.3570    -5.0029     0.6917 C.3     
  18 C18            1.6769    -5.1712    -0.6684 C.3     
  19 C19            1.1527    -3.8160    -1.1477 C.3     
  20 O20            7.6494     2.2569     0.6207 O.3     
  21 C21            7.2455     2.6923    -0.6957 C.3     
  22 O22            8.3925     2.9634    -1.5038 O.3     
  23 C23            9.1669     4.0787    -1.0582 C.3     
  24 O24            5.5266     2.4892     1.6231 O.3     
  25 C25            5.9191     3.2088     2.7936 C.3     
  26 H26           -0.9483     1.9396     0.1691 H       
  27 H27           -0.9233    -0.5447     0.1102 H       
  28 H28            1.1775    -1.7441     0.0278 H       
  29 H29            1.1615     3.1779     0.1511 H       
  30 H30            6.3480    -0.2736    -0.0177 H       
  31 H31            4.6466    -1.9002    -0.8874 H       
  32 H32            2.2795    -2.2803     0.8023 H       
  33 H33            7.0941     0.8682    -1.8807 H       
  34 H34            5.6037     1.8629    -1.8668 H       
  35 H35            1.9462    -1.8698    -1.6203 H       
  36 H36            3.0399    -3.2218    -1.9999 H       
  37 H37            6.8120     0.8930     1.9656 H       
  38 H38            4.2442    -4.4086    -0.1605 H       
  39 H39            4.0085    -3.9021     1.5296 H       
  40 H40            2.7305    -5.9683     1.0332 H       
  41 H41            1.6367    -4.6163     1.4127 H       
  42 H42            2.3972    -5.5578    -1.3895 H       
  43 H43            0.8456    -5.8699    -0.5750 H       
  44 H44            0.4324    -3.4295    -0.4267 H       
  45 H45            0.6682    -3.9359    -2.1167 H       
  46 H46            6.6123     3.5767    -0.6252 H       
  47 H47            8.5487     4.9764    -1.0656 H       
  48 H48            9.5238     3.8917    -0.0454 H       
  49 H49           10.0187     4.2186    -1.7236 H       
  50 H50            6.1066     2.5067     3.6060 H       
  51 H51            6.8274     3.7742     2.5850 H       
  52 H52            5.1227     3.8946     3.0826 H       
@<TRIPOS>BOND
   1    1    2 1
   2    1    6 2
   3    1   26 1
   4    2    3 2
   5    2   27 1
   6    3    4 1
   7    3   28 1
   8    4    5 1
   9    4    7 1
  10    5    6 1
  11    5    9 2
  12    6   29 1
  13    7    8 2
  14    7   11 1
  15    8    9 1
  16    8   10 1
  17   10   13 1
  18   10   15 1
  19   10   30 1
  20   11   12 1
  21   11   31 1
  22   12   16 1
  23   12   14 1
  24   12   32 1
  25   13   21 1
  26   13   33 1
  27   13   34 1
  28   14   19 1
  29   14   35 1
  30   14   36 1
  31   15   20 1
  32   15   24 1
  33   15   37 1
  34   16   17 1
  35   16   38 1
  36   16   39 1
  37   17   18 1
  38   17   40 1
  39   17   41 1
  40   18   19 1
  41   18   42 1
  42   18   43 1
  43   19   44 1
  44   19   45 1
  45   20   21 1
  46   21   22 1
  47   21   46 1
  48   22   23 1
  49   23   47 1
  50   23   48 1
  51   23   49 1
  52   24   25 1
  53   25   50 1
  54   25   51 1
  55   25   52 1

#	End of record

