#	Name: ASD01812244
#	Creating user name:	WinNT
#	Creation time:	15. 06. 2019 19:28

#	Modifying user name:	WinNT
#	Modification time:	15. 06. 2019 19:28

#	Program:	/corina/corina34_cracker 3.40 0067  02.08.2006

@<TRIPOS>MOLECULE
ASD01812244
  64   68    0    0    0
SMALL
NO_CHARGES


@<TRIPOS>ATOM
   1 C1             0.0263     0.9679    -0.2184 C.ar    
   2 C2             0.1516    -0.4200    -0.2441 C.ar    
   3 C3             1.3908    -0.9932    -0.2039 C.ar    
   4 C4             2.5134    -0.1471    -0.1369 C.ar    
   5 C5             2.3143     1.2571    -0.1141 C.ar    
   6 N6             1.0733     1.7532    -0.1561 N.ar    
   7 C7             3.8180    -0.6678    -0.0922 C.ar    
   8 C8             4.8851     0.1688    -0.0275 C.ar    
   9 C9             4.7067     1.5654    -0.0040 C.ar    
  10 C10            3.4302     2.1012    -0.0476 C.ar    
  11 C11            4.0328    -2.1592    -0.1157 C.3     
  12 C12            5.6751     2.6792     0.0626 C.2     
  13 N13            5.0303     3.8585     0.0611 N.am    
  14 C14            3.5874     3.6004    -0.0072 C.3     
  15 O15            6.8825     2.5478     0.1118 O.2     
  16 C16            5.6617     5.1792     0.1185 C.3     
  17 C17            6.6872     5.3037    -1.0101 C.3     
  18 C18            7.3466     6.6830    -0.9502 C.3     
  19 C19            8.0489     6.8543     0.3982 C.3     
  20 C20            7.0234     6.7298     1.5269 C.3     
  21 C21            6.3640     5.3505     1.4669 C.3     
  22 N22            3.9235    -2.6480    -1.4967 N.3     
  23 C23            4.3576    -4.0473    -1.5956 C.3     
  24 C24            4.0943    -4.5657    -3.0113 C.3     
  25 C25            4.8606    -3.7017    -4.0167 C.3     
  26 C26            4.4251    -2.2422    -3.8598 C.3     
  27 C27            4.6788    -1.7912    -2.4196 C.3     
  28 O28            6.0312     5.1436    -2.2695 O.3     
  29 F29            6.2342    -3.8096    -3.7744 F       
  30 C30            3.5738     3.5182    -2.5043 C.3     
  31 C31            3.0006     4.2253    -1.2745 C.3     
  32 C32            4.5648    -4.1590    -5.3842 C.1     
  33 N33            4.3366    -4.5119    -6.4396 N.1     
  34 H34           -0.9595     1.4077    -0.2554 H       
  35 H35           -0.7301    -1.0415    -0.2954 H       
  36 H36            1.5060    -2.0669    -0.2226 H       
  37 H37            5.8833    -0.2419     0.0068 H       
  38 H38            5.0245    -2.3896     0.2738 H       
  39 H39            3.2778    -2.6449     0.5024 H       
  40 H40            3.0918     4.0065     0.8746 H       
  41 H41            4.9006     5.9510     0.0046 H       
  42 H42            7.4483     4.5318    -0.8962 H       
  43 H43            8.0772     6.7717    -1.7542 H       
  44 H44            6.5855     7.4548    -1.0641 H       
  45 H45            8.8101     6.0825     0.5122 H       
  46 H46            8.5187     7.8370     0.4409 H       
  47 H47            7.5238     6.8519     2.4875 H       
  48 H48            6.2623     7.5017     1.4129 H       
  49 H49            5.6334     5.2618     2.2710 H       
  50 H50            7.1252     4.5787     1.5808 H       
  51 H51            5.4235    -4.1132    -1.3772 H       
  52 H52            3.8021    -4.6515    -0.8784 H       
  53 H53            4.4310    -5.5995    -3.0888 H       
  54 H54            3.0268    -4.5130    -3.2254 H       
  55 H55            4.9981    -1.6159    -4.5436 H       
  56 H56            3.3628    -2.1529    -4.0873 H       
  57 H57            4.3566    -0.7567    -2.3008 H       
  58 H58            5.7432    -1.8676    -2.1973 H       
  59 H59            6.6221     5.2108    -3.0321 H       
  60 H60            4.6623     3.5163    -2.4479 H       
  61 H61            3.2098     2.4912    -2.5355 H       
  62 H62            3.2576     4.0432    -3.4056 H       
  63 H63            1.9161     4.1158    -1.2650 H       
  64 H64            3.2586     5.2837    -1.3108 H       
@<TRIPOS>BOND
   1    1    2 ar
   2    1    6 ar
   3    1   34 1
   4    2    3 ar
   5    2   35 1
   6    3    4 ar
   7    3   36 1
   8    4    5 ar
   9    4    7 ar
  10    5    6 ar
  11    5   10 ar
  12    7    8 ar
  13    7   11 1
  14    8    9 ar
  15    8   37 1
  16    9   10 ar
  17    9   12 1
  18   10   14 1
  19   11   22 1
  20   11   38 1
  21   11   39 1
  22   12   13 am
  23   12   15 2
  24   13   14 1
  25   13   16 1
  26   14   31 1
  27   14   40 1
  28   16   17 1
  29   16   21 1
  30   16   41 1
  31   17   18 1
  32   17   28 1
  33   17   42 1
  34   18   19 1
  35   18   43 1
  36   18   44 1
  37   19   20 1
  38   19   45 1
  39   19   46 1
  40   20   21 1
  41   20   47 1
  42   20   48 1
  43   21   49 1
  44   21   50 1
  45   22   23 1
  46   22   27 1
  47   23   24 1
  48   23   51 1
  49   23   52 1
  50   24   25 1
  51   24   53 1
  52   24   54 1
  53   25   32 1
  54   25   26 1
  55   25   29 1
  56   26   27 1
  57   26   55 1
  58   26   56 1
  59   27   57 1
  60   27   58 1
  61   28   59 1
  62   30   31 1
  63   30   60 1
  64   30   61 1
  65   30   62 1
  66   31   63 1
  67   31   64 1
  68   32   33 3

#	End of record

