#	Name: ASD03430210
#	Creating user name:	WinNT
#	Creation time:	15. 06. 2019 20:40

#	Modifying user name:	WinNT
#	Modification time:	15. 06. 2019 20:40

#	Program:	/corina/corina34_cracker 3.40 0067  02.08.2006

@<TRIPOS>MOLECULE
ASD03430210
  72   77    0    0    0
SMALL
NO_CHARGES


@<TRIPOS>ATOM
   1 C1            -2.8941    -6.6774     4.7450 C.ar    
   2 C2            -2.3420    -6.5506     3.4896 C.ar    
   3 C3            -1.0515    -6.9768     3.2547 C.ar    
   4 C4            -0.3008    -7.5455     4.2804 C.ar    
   5 C5            -0.8616    -7.6602     5.5468 C.ar    
   6 C6            -2.1589    -7.2253     5.7897 C.ar    
   7 O7             0.9298    -7.9281     3.8354 O.3     
   8 C8            -0.1711    -6.9610     2.0347 C.3     
   9 C9             1.2265    -7.2398     2.6057 C.3     
  10 C10           -0.8252    -7.2865    -0.1533 C.ar    
  11 C11           -0.5764    -7.9909     1.0220 C.ar    
  12 C12           -0.2246    -5.6474     1.3093 C.2     
  13 N13           -0.6098    -5.9211     0.0467 N.am    
  14 O14            0.0289    -4.5541     1.7692 O.2     
  15 C15           -0.7240    -9.3590     1.0631 C.ar    
  16 C16           -1.1222   -10.0479    -0.0692 C.ar    
  17 C17           -1.3723    -9.3588    -1.2415 C.ar    
  18 C18           -1.2262    -7.9878    -1.2878 C.ar    
  19 C19           -0.7818    -4.9049    -0.9944 C.3     
  20 C20           -4.2615    -6.3275     5.2984 C.3     
  21 C21           -4.2771    -7.1110     6.6323 C.3     
  22 O22           -2.8793    -7.2327     6.9459 O.3     
  23 C23           -2.2206    -4.4581    -1.0274 C.ar    
  24 C24           -2.6216    -3.4555    -1.9121 C.ar    
  25 C25           -1.6371    -2.8290    -2.8199 C.2     
  26 O26           -0.4578    -3.1070    -2.7226 O.2     
  27 C27           -3.1454    -5.0428    -0.1875 C.ar    
  28 C28           -4.4671    -4.6339    -0.2168 C.ar    
  29 C29           -4.8700    -3.6373    -1.0875 C.ar    
  30 C30           -3.9560    -3.0475    -1.9363 C.ar    
  31 N31           -2.0472    -1.9496    -3.7553 N.am    
  32 C32           -1.0717    -1.3288    -4.6548 C.3     
  33 C33           -1.7935    -0.3788    -5.6126 C.3     
  34 C34           -0.7746     0.2696    -6.5520 C.3     
  35 C35           -1.4964     1.2195    -7.5099 C.3     
  36 C36           -0.4776     1.8679    -8.4493 C.3     
  37 C37           -1.1994     2.8179    -9.4071 C.3     
  38 C38           -0.1805     3.4662   -10.3465 C.3     
  39 H39           -2.9208    -6.1169     2.6876 H       
  40 H40           -0.2836    -8.0924     6.3502 H       
  41 H41            1.7573    -6.3082     2.8019 H       
  42 H42            1.7990    -7.8785     1.9331 H       
  43 H43           -0.5286    -9.8953     1.9799 H       
  44 H44           -1.2369   -11.1213    -0.0373 H       
  45 H45           -1.6832    -9.8964    -2.1251 H       
  46 H46           -1.4232    -7.4565    -2.2072 H       
  47 H47           -0.1408    -4.0503    -0.7774 H       
  48 H48           -0.5099    -5.3265    -1.9621 H       
  49 H49           -4.3474    -5.2554     5.4754 H       
  50 H50           -5.0516    -6.6754     4.6331 H       
  51 H51           -4.7986    -6.5469     7.4055 H       
  52 H52           -4.7297    -8.0934     6.4979 H       
  53 H53           -2.8373    -5.8216     0.4944 H       
  54 H54           -5.1873    -5.0952     0.4427 H       
  55 H55           -5.9031    -3.3230    -1.1057 H       
  56 H56           -4.2718    -2.2695    -2.6156 H       
  57 H57           -2.9883    -1.7278    -3.8330 H       
  58 H58           -0.3422    -0.7693    -4.0692 H       
  59 H59           -0.5610    -2.1032    -5.2272 H       
  60 H60           -2.5229    -0.9383    -6.1982 H       
  61 H61           -2.3041     0.3956    -5.0402 H       
  62 H62           -0.0451     0.8291    -5.9664 H       
  63 H63           -0.2640    -0.5048    -7.1245 H       
  64 H64           -2.2259     0.6600    -8.0954 H       
  65 H65           -2.0070     1.9939    -6.9374 H       
  66 H66            0.2519     2.4274    -7.8637 H       
  67 H67            0.0330     1.0935    -9.0217 H       
  68 H68           -1.9289     2.2583    -9.9927 H       
  69 H69           -1.7100     3.5923    -8.8346 H       
  70 H70            0.5489     4.0257    -9.7609 H       
  71 H71            0.3301     2.6918   -10.9189 H       
  72 H72           -0.6948     4.1430   -11.0289 H       
@<TRIPOS>BOND
   1    1    2 ar
   2    1    6 ar
   3    1   20 1
   4    2    3 ar
   5    2   39 1
   6    3    4 ar
   7    3    8 1
   8    4    5 ar
   9    4    7 1
  10    5    6 ar
  11    5   40 1
  12    6   22 1
  13    7    9 1
  14    8    9 1
  15    8   11 1
  16    8   12 1
  17    9   41 1
  18    9   42 1
  19   10   11 ar
  20   10   13 1
  21   10   18 ar
  22   11   15 ar
  23   12   13 am
  24   12   14 2
  25   13   19 1
  26   15   16 ar
  27   15   43 1
  28   16   17 ar
  29   16   44 1
  30   17   18 ar
  31   17   45 1
  32   18   46 1
  33   19   23 1
  34   19   47 1
  35   19   48 1
  36   20   21 1
  37   20   49 1
  38   20   50 1
  39   21   22 1
  40   21   51 1
  41   21   52 1
  42   23   24 ar
  43   23   27 ar
  44   24   25 1
  45   24   30 ar
  46   25   26 2
  47   25   31 am
  48   27   28 ar
  49   27   53 1
  50   28   29 ar
  51   28   54 1
  52   29   30 ar
  53   29   55 1
  54   30   56 1
  55   31   32 1
  56   31   57 1
  57   32   33 1
  58   32   58 1
  59   32   59 1
  60   33   34 1
  61   33   60 1
  62   33   61 1
  63   34   35 1
  64   34   62 1
  65   34   63 1
  66   35   36 1
  67   35   64 1
  68   35   65 1
  69   36   37 1
  70   36   66 1
  71   36   67 1
  72   37   38 1
  73   37   68 1
  74   37   69 1
  75   38   70 1
  76   38   71 1
  77   38   72 1

#	End of record

