#	Name: ASD00069195
#	Creating user name:	WinNT
#	Creation time:	15. 06. 2019 18:29

#	Modifying user name:	WinNT
#	Modification time:	15. 06. 2019 18:29

#	Program:	/corina/corina34_cracker 3.40 0067  02.08.2006

@<TRIPOS>MOLECULE
ASD00069195
  64   68    0    0    0
SMALL
NO_CHARGES


@<TRIPOS>ATOM
   1 C1            -0.0995     1.2017    -0.5430 C.2     
   2 N2            -0.0003    -0.0025    -0.0255 N.2     
   3 C3             1.2442    -0.4582    -0.2163 C.2     
   4 C4             1.9499     0.5054    -0.8819 C.2     
   5 N5             1.1083     1.5432    -1.0857 N.pl3   
   6 C6            -1.3116     2.0410    -0.5438 C.2     
   7 O7            -1.2870     3.1444    -1.0549 O.2     
   8 N8            -2.4470     1.5855     0.0217 N.am    
   9 C9             1.4726    -3.9006     1.2822 C.ar    
  10 C10            0.9471    -2.6850     0.8958 C.ar    
  11 C11            1.7660    -1.7767     0.2188 C.ar    
  12 C12            3.0902    -2.1451    -0.0374 C.ar    
  13 C13            3.5345    -3.3808     0.3842 C.ar    
  14 N14            2.7284    -4.2094     1.0207 N.ar    
  15 C15            0.6025    -4.8865     2.0183 C.3     
  16 C16           -3.5627     2.4254     0.1268 C.ar    
  17 C17           -4.8484     1.8960     0.0228 C.ar    
  18 C18           -5.9502     2.7343     0.1284 C.ar    
  19 C19           -5.7694     4.0908     0.3363 C.ar    
  20 C20           -4.4937     4.6142     0.4388 C.ar    
  21 C21           -3.3918     3.7854     0.3405 C.ar    
  22 N22           -5.0278     0.5229    -0.1881 N.3     
  23 C23           -5.7969    -0.0817     0.9071 C.3     
  24 C24           -5.8486    -1.5995     0.7187 C.3     
  25 C25           -6.5039    -1.9199    -0.6276 C.3     
  26 C26           -5.7115    -1.2387    -1.7469 C.3     
  27 C27           -5.6639     0.2687    -1.4871 C.3     
  28 C28           -6.5035    -3.4110    -0.8458 C.2     
  29 O29           -5.5763    -4.0822    -0.4450 O.2     
  30 N30           -7.5335    -3.9986    -1.4863 N.am    
  31 C31           -7.7124    -5.4458    -1.6739 C.3     
  32 C32           -9.0120    -5.6458    -2.4818 C.3     
  33 C33           -9.1944    -4.2779    -3.1909 C.3     
  34 C34           -8.6707    -3.2970    -2.1092 C.3     
  35 F35           -8.8587    -6.6728    -3.4194 F       
  36 F36           -7.1981     2.2263     0.0278 F       
  37 H37            2.9844     0.4481    -1.1869 H       
  38 H38            1.3216     2.3763    -1.5344 H       
  39 H39           -2.4914     0.6760     0.3560 H       
  40 H40           -0.0818    -2.4389     1.1128 H       
  41 H41            3.7552    -1.4720    -0.5581 H       
  42 H42            4.5556    -3.6743     0.1906 H       
  43 H43            0.1007    -5.5351     1.3003 H       
  44 H44            1.2198    -5.4901     2.6836 H       
  45 H45           -0.1425    -4.3474     2.6035 H       
  46 H46           -6.6270     4.7421     0.4183 H       
  47 H47           -4.3579     5.6733     0.6007 H       
  48 H48           -2.3972     4.1975     0.4260 H       
  49 H49           -5.3180     0.1502     1.8583 H       
  50 H50           -6.8105     0.3194     0.9037 H       
  51 H51           -4.8361    -2.0030     0.7358 H       
  52 H52           -6.4327    -2.0464     1.5232 H       
  53 H53           -7.5294    -1.5506    -0.6306 H       
  54 H54           -4.6970    -1.6365    -1.7686 H       
  55 H55           -6.1977    -1.4279    -2.7040 H       
  56 H56           -6.6780     0.6681    -1.4792 H       
  57 H57           -5.0882     0.7549    -2.2747 H       
  58 H58           -6.8662    -5.8555    -2.2255 H       
  59 H59           -7.7989    -5.9373    -0.7049 H       
  60 H60           -9.8514    -5.8508    -1.8174 H       
  61 H61           -8.5910    -4.2240    -4.0970 H       
  62 H62          -10.2451    -4.0891    -3.4112 H       
  63 H63           -9.4448    -3.0969    -1.3684 H       
  64 H64           -8.3364    -2.3676    -2.5703 H       
@<TRIPOS>BOND
   1    1    2 2
   2    1    5 1
   3    1    6 1
   4    2    3 1
   5    3    4 2
   6    3   11 1
   7    4    5 1
   8    4   37 1
   9    5   38 1
  10    6    7 2
  11    6    8 am
  12    8   16 1
  13    8   39 1
  14    9   10 ar
  15    9   14 ar
  16    9   15 1
  17   10   11 ar
  18   10   40 1
  19   11   12 ar
  20   12   13 ar
  21   12   41 1
  22   13   14 ar
  23   13   42 1
  24   15   43 1
  25   15   44 1
  26   15   45 1
  27   16   17 ar
  28   16   21 ar
  29   17   18 ar
  30   17   22 1
  31   18   19 ar
  32   18   36 1
  33   19   20 ar
  34   19   46 1
  35   20   21 ar
  36   20   47 1
  37   21   48 1
  38   22   23 1
  39   22   27 1
  40   23   24 1
  41   23   49 1
  42   23   50 1
  43   24   25 1
  44   24   51 1
  45   24   52 1
  46   25   26 1
  47   25   28 1
  48   25   53 1
  49   26   27 1
  50   26   54 1
  51   26   55 1
  52   27   56 1
  53   27   57 1
  54   28   29 2
  55   28   30 am
  56   30   31 1
  57   30   34 1
  58   31   32 1
  59   31   58 1
  60   31   59 1
  61   32   33 1
  62   32   35 1
  63   32   60 1
  64   33   34 1
  65   33   61 1
  66   33   62 1
  67   34   63 1
  68   34   64 1

#	End of record

