#	Name: ASD01820062
#	Creating user name:	WinNT
#	Creation time:	15. 06. 2019 19:36

#	Modifying user name:	WinNT
#	Modification time:	15. 06. 2019 19:36

#	Program:	/corina/corina34_cracker 3.40 0067  02.08.2006

@<TRIPOS>MOLECULE
ASD01820062
  82   87    0    0    0
SMALL
NO_CHARGES


@<TRIPOS>ATOM
   1 C1            -0.0167     1.3781     0.0096 C.ar    
   2 C2             0.0021    -0.0041     0.0020 C.ar    
   3 C3             1.2063    -0.6904    -0.0127 C.ar    
   4 C4             2.3989     0.0151    -0.0203 C.ar    
   5 C5             2.3798     1.4244    -0.0130 C.ar    
   6 C6             1.1684     2.0970     0.0022 C.ar    
   7 C7             3.8260    -0.3700    -0.0355 C.2     
   8 N8             4.5720     0.7494    -0.0368 N.am    
   9 C9             3.7959     1.8481    -0.0241 C.2     
  10 O10            4.1923     2.9960    -0.0228 O.2     
  11 O11            4.2534    -1.5068    -0.0446 O.2     
  12 C12            6.0368     0.7693    -0.0497 C.3     
  13 O13            6.4969     1.1306    -1.3535 O.3     
  14 N14            7.9069     1.1792    -1.4737 N.2     
  15 C15            8.4488     1.4941    -2.6044 C.2     
  16 C16            9.9199     1.5448    -2.7298 C.ar    
  17 C17           10.5272     1.8835    -3.9447 C.ar    
  18 C18           11.9047     1.9186    -4.0169 C.ar    
  19 N19           12.6458     1.6388    -2.9622 N.ar    
  20 C20           12.1146     1.3147    -1.7992 C.ar    
  21 C21           10.7455     1.2613    -1.6355 C.ar    
  22 C22           14.1046     1.6891    -3.0866 C.3     
  23 C23           14.5969     3.0980    -2.7498 C.3     
  24 C24           16.1205     3.1505    -2.8797 C.3     
  25 N25           20.0875     6.0712    -2.4605 N.ar    
  26 C26           20.6187     6.3948    -3.6236 C.ar    
  27 C27           21.9877     6.4599    -3.7841 C.ar    
  28 C28           22.8132     6.1764    -2.6898 C.ar    
  29 C29           22.2060     5.8375    -1.4750 C.ar    
  30 C30           20.8285     5.7967    -1.4043 C.ar    
  31 C31           24.2842     6.2327    -2.8137 C.2     
  32 N32           25.0297     5.9673    -1.7913 N.2     
  33 O33           26.4397     6.0213    -1.9101 O.3     
  34 C34           27.1371     5.7053    -0.7035 C.3     
  35 N35           28.5808     5.7909    -0.9372 N.am    
  36 C36           29.3635     6.7962    -0.5054 C.2     
  37 C37           30.7528     6.5287    -0.9335 C.ar    
  38 C38           30.7114     5.3076    -1.6363 C.ar    
  39 C39           29.2993     4.8718    -1.6070 C.2     
  40 C40           31.9579     7.1955    -0.7810 C.ar    
  41 C41           33.1148     6.6562    -1.3214 C.ar    
  42 C42           33.0742     5.4587    -2.0106 C.ar    
  43 C43           31.8760     4.7806    -2.1711 C.ar    
  44 O44           28.9910     7.7621     0.1296 O.2     
  45 O45           28.8600     3.8573    -2.1098 O.2     
  46 C46           16.6128     4.5595    -2.5429 C.3     
  47 C47           18.1364     4.6120    -2.6728 C.3     
  48 C48           18.6287     6.0209    -2.3361 C.3     
  49 H49           -0.9613     1.9015     0.0169 H       
  50 H50           -0.9280    -0.5530     0.0079 H       
  51 H51            1.2149    -1.7703    -0.0179 H       
  52 H52            1.1477     3.1767     0.0074 H       
  53 H53            6.3966     1.4974     0.6773 H       
  54 H54            6.4159    -0.2195     0.2083 H       
  55 H55            7.8260     1.7201    -3.4573 H       
  56 H56            9.9267     2.1134    -4.8124 H       
  57 H57           12.3827     2.1784    -4.9499 H       
  58 H58           12.7601     1.0926    -0.9622 H       
  59 H59           10.3175     0.9952    -0.6803 H       
  60 H60           14.5529     0.9732    -2.3976 H       
  61 H61           14.3910     1.4386    -4.1080 H       
  62 H62           14.1486     3.8139    -3.4388 H       
  63 H63           14.3105     3.3485    -1.7284 H       
  64 H64           16.5688     2.4347    -2.1907 H       
  65 H65           16.4069     2.9000    -3.9011 H       
  66 H66           19.9733     6.6115    -4.4620 H       
  67 H67           22.4156     6.7253    -4.7395 H       
  68 H68           22.8064     5.6115    -0.6062 H       
  69 H69           20.3505     5.5363    -0.4715 H       
  70 H70           24.7369     6.4955    -3.7584 H       
  71 H71           26.8527     6.4119     0.0762 H       
  72 H72           26.8793     4.6940    -0.3890 H       
  73 H73           31.9954     8.1316    -0.2438 H       
  74 H74           34.0544     7.1754    -1.2033 H       
  75 H75           33.9824     5.0486    -2.4271 H       
  76 H76           31.8502     3.8453    -2.7106 H       
  77 H77           16.1645     5.2753    -3.2319 H       
  78 H78           16.3264     4.8100    -1.5215 H       
  79 H79           18.5846     3.8961    -1.9839 H       
  80 H80           18.4228     4.3615    -3.6943 H       
  81 H81           18.3423     6.2714    -1.3147 H       
  82 H82           18.1804     6.7368    -3.0251 H       
@<TRIPOS>BOND
   1    1    2 ar
   2    1    6 ar
   3    1   49 1
   4    2    3 ar
   5    2   50 1
   6    3    4 ar
   7    3   51 1
   8    4    5 ar
   9    4    7 1
  10    5    6 ar
  11    5    9 1
  12    6   52 1
  13    7    8 am
  14    7   11 2
  15    8    9 am
  16    8   12 1
  17    9   10 2
  18   12   13 1
  19   12   53 1
  20   12   54 1
  21   13   14 1
  22   14   15 2
  23   15   16 1
  24   15   55 1
  25   16   17 ar
  26   16   21 ar
  27   17   18 ar
  28   17   56 1
  29   18   19 ar
  30   18   57 1
  31   19   20 ar
  32   19   22 1
  33   20   21 ar
  34   20   58 1
  35   21   59 1
  36   22   23 1
  37   22   60 1
  38   22   61 1
  39   23   24 1
  40   23   62 1
  41   23   63 1
  42   24   46 1
  43   24   64 1
  44   24   65 1
  45   25   26 ar
  46   25   30 ar
  47   25   48 1
  48   26   27 ar
  49   26   66 1
  50   27   28 ar
  51   27   67 1
  52   28   29 ar
  53   28   31 1
  54   29   30 ar
  55   29   68 1
  56   30   69 1
  57   31   32 2
  58   31   70 1
  59   32   33 1
  60   33   34 1
  61   34   35 1
  62   34   71 1
  63   34   72 1
  64   35   36 am
  65   35   39 am
  66   36   37 1
  67   36   44 2
  68   37   38 ar
  69   37   40 ar
  70   38   39 1
  71   38   43 ar
  72   39   45 2
  73   40   41 ar
  74   40   73 1
  75   41   42 ar
  76   41   74 1
  77   42   43 ar
  78   42   75 1
  79   43   76 1
  80   46   47 1
  81   46   77 1
  82   46   78 1
  83   47   48 1
  84   47   79 1
  85   47   80 1
  86   48   81 1
  87   48   82 1

#	End of record

