#	Name: ASD03092021
#	Creating user name:	WinNT
#	Creation time:	15. 06. 2019 20:31

#	Modifying user name:	WinNT
#	Modification time:	15. 06. 2019 20:31

#	Program:	/corina/corina34_cracker 3.40 0067  02.08.2006

@<TRIPOS>MOLECULE
ASD03092021
  43   45    0    0    0
SMALL
NO_CHARGES


@<TRIPOS>ATOM
   1 N1             0.2713     0.9160    -0.3920 N.pl3   
   2 C2             0.0703    -0.3409     0.0956 C.2     
   3 C3            -1.2712    -0.4898     0.3030 C.2     
   4 C4            -1.8972     0.7070    -0.0686 C.2     
   5 N5            -0.9756     1.5480    -0.4776 N.2     
   6 C6             1.5630     1.5036    -0.7560 C.3     
   7 C7             1.8065     1.3078    -2.2302 C.2     
   8 N8             2.9402     1.7704    -2.7933 N.am    
   9 N9            -3.2720     0.9649    -0.0079 N.pl3   
  10 C10           -3.7569     2.2441    -0.2975 C.ar    
  11 C11           -5.0347     2.4020    -0.8176 C.ar    
  12 C12           -5.5121     3.6685    -1.1028 C.ar    
  13 C13           -4.7149     4.7789    -0.8693 C.ar    
  14 C14           -3.4408     4.6218    -0.3513 C.ar    
  15 C15           -2.9629     3.3590    -0.0600 C.ar    
  16 F16           -6.7549     3.8237    -1.6092 F       
  17 C17            1.1143    -1.3576     0.3531 C.ar    
  18 C18            2.3479    -1.2921    -0.3033 C.ar    
  19 C19            3.2905    -2.2674    -0.0274 C.ar    
  20 C20            2.9858    -3.2659     0.8796 C.ar    
  21 N21            1.8133    -3.3025     1.4834 N.ar    
  22 C22            0.8868    -2.3940     1.2587 C.ar    
  23 C23            3.1769     1.5800    -4.2265 C.3     
  24 O24            0.9822     0.7338    -2.9099 O.2     
  25 C25            3.9359     2.4637    -1.9722 C.3     
  26 F26           -5.1821     6.0154    -1.1482 F       
  27 H27           -1.7619    -1.3727     0.6852 H       
  28 H28            1.5546     2.5694    -0.5275 H       
  29 H29            2.3564     1.0168    -0.1888 H       
  30 H30           -3.8882     0.2562     0.2350 H       
  31 H31           -5.6550     1.5368    -0.9995 H       
  32 H32           -2.8214     5.4879    -0.1710 H       
  33 H33           -1.9688     3.2379     0.3445 H       
  34 H34            2.5593    -0.5010    -1.0075 H       
  35 H35            4.2537    -2.2490    -0.5155 H       
  36 H36            3.7193    -4.0282     1.0969 H       
  37 H37           -0.0609    -2.4575     1.7726 H       
  38 H38            2.7726     2.4292    -4.7774 H       
  39 H39            4.2485     1.5041    -4.4108 H       
  40 H40            2.6856     0.6650    -4.5574 H       
  41 H41            3.5879     2.5091    -0.9403 H       
  42 H42            4.8812     1.9226    -2.0134 H       
  43 H43            4.0794     3.4752    -2.3521 H       
@<TRIPOS>BOND
   1    1    2 1
   2    1    6 1
   3    1    5 1
   4    2    3 2
   5    2   17 1
   6    3    4 1
   7    3   27 1
   8    4    5 2
   9    4    9 1
  10    6    7 1
  11    6   28 1
  12    6   29 1
  13    7    8 am
  14    7   24 2
  15    8   23 1
  16    8   25 1
  17    9   10 1
  18    9   30 1
  19   10   11 ar
  20   10   15 ar
  21   11   12 ar
  22   11   31 1
  23   12   13 ar
  24   12   16 1
  25   13   14 ar
  26   13   26 1
  27   14   15 ar
  28   14   32 1
  29   15   33 1
  30   17   18 ar
  31   17   22 ar
  32   18   19 ar
  33   18   34 1
  34   19   20 ar
  35   19   35 1
  36   20   21 ar
  37   20   36 1
  38   21   22 ar
  39   22   37 1
  40   23   38 1
  41   23   39 1
  42   23   40 1
  43   25   41 1
  44   25   42 1
  45   25   43 1

#	End of record

