#	Name: ASD04640014
#	Creating user name:	WinNT
#	Creation time:	15. 06. 2019 20:52

#	Modifying user name:	WinNT
#	Modification time:	15. 06. 2019 20:52

#	Program:	/corina/corina34_cracker 3.40 0067  02.08.2006

@<TRIPOS>MOLECULE
ASD04640014
  27   28    0    0    0
SMALL
NO_CHARGES


@<TRIPOS>ATOM
   1 C1            -0.0167     1.3783     0.0096 C.ar    
   2 C2             0.0021    -0.0041     0.0020 C.ar    
   3 C3             1.2034    -0.6825    -0.0126 C.ar    
   4 C4             2.4063     0.0274    -0.0203 C.ar    
   5 C5             2.3874     1.4223    -0.0131 C.ar    
   6 C6             1.1745     2.0944     0.0021 C.ar    
   7 N7             1.1500     3.4912     0.0093 N.3     
   8 C8            -0.2310     3.9935     0.0248 C.3     
   9 C9            -0.2142     5.5214     0.1126 C.3     
  10 N10            0.5289     6.0672    -1.0317 N.3     
  11 C11            1.9098     5.5648    -1.0472 C.3     
  12 C12            1.8931     4.0369    -1.1350 C.3     
  13 C13            3.6545    -0.6741    -0.0350 C.1     
  14 N14            4.6448    -1.2307    -0.0467 N.1     
  15 H15           -0.9603     1.9036     0.0169 H       
  16 H16           -0.9269    -0.5549     0.0079 H       
  17 H17            1.2137    -1.7624    -0.0178 H       
  18 H18            3.3141     1.9769    -0.0186 H       
  19 H19           -0.7396     3.6874    -0.8894 H       
  20 H20           -0.7568     3.5854     0.8879 H       
  21 H21           -1.2370     5.8979     0.0950 H       
  22 H22            0.2702     5.8271     1.0400 H       
  23 H23            0.0589     5.8598    -1.9002 H       
  24 H24            2.4357     5.9730    -1.9103 H       
  25 H25            2.4184     5.8710    -0.1330 H       
  26 H26            2.9159     3.6604    -1.1174 H       
  27 H27            1.4087     3.7313    -2.0624 H       
@<TRIPOS>BOND
   1    1    2 ar
   2    1    6 ar
   3    1   15 1
   4    2    3 ar
   5    2   16 1
   6    3    4 ar
   7    3   17 1
   8    4    5 ar
   9    4   13 1
  10    5    6 ar
  11    5   18 1
  12    6    7 1
  13    7    8 1
  14    7   12 1
  15    8    9 1
  16    8   19 1
  17    8   20 1
  18    9   10 1
  19    9   21 1
  20    9   22 1
  21   10   11 1
  22   10   23 1
  23   11   12 1
  24   11   24 1
  25   11   25 1
  26   12   26 1
  27   12   27 1
  28   13   14 3

#	End of record

