#	Name: ASD03330208
#	Creating user name:	WinNT
#	Creation time:	15. 06. 2019 20:36

#	Modifying user name:	WinNT
#	Modification time:	15. 06. 2019 20:36

#	Program:	/corina/corina34_cracker 3.40 0067  02.08.2006

@<TRIPOS>MOLECULE
ASD03330208
  59   62    0    0    0
SMALL
NO_CHARGES


@<TRIPOS>ATOM
   1 C1             0.0816     1.1920     0.9513 C.ar    
   2 C2             0.0981    -0.2713     0.7353 C.2     
   3 N3            -0.9055    -1.1333     1.0565 N.pl3   
   4 C4            -0.4990    -2.3836     0.6992 C.2     
   5 C5             0.7438    -2.2648     0.1649 C.2     
   6 N6             1.0811    -0.9556     0.1962 N.2     
   7 C7             1.5732    -3.3640    -0.3599 C.2     
   8 N8             2.7954    -3.1041    -0.8649 N.am    
   9 C9            -0.8417     1.7593     1.8300 C.ar    
  10 O10            1.1548    -4.5058    -0.3372 O.2     
  11 C11            3.6200    -4.1969    -1.3866 C.3     
  12 C12            3.2384    -4.4736    -2.8422 C.3     
  13 C13            5.0741    -3.8079    -1.3137 C.2     
  14 C14            3.3727    -3.1863    -3.6582 C.3     
  15 N15            6.0117    -4.7466    -1.0768 N.am    
  16 C16            4.1690    -5.5424    -3.4190 C.3     
  17 C17           -2.2000    -0.8276     1.6707 C.3     
  18 C18           -3.1447    -2.0130     1.4437 C.3     
  19 C19           -2.4550    -3.3110     1.8731 C.3     
  20 C20           -1.3221    -3.6319     0.8886 C.3     
  21 C21            1.7922    -4.9688    -2.9050 C.3     
  22 O22            5.4006    -2.6501    -1.4681 O.2     
  23 C23           -0.8526     3.1263     2.0280 C.ar    
  24 C24            0.0526     3.9337     1.3538 C.ar    
  25 C25            0.9704     3.3734     0.4803 C.ar    
  26 C26            0.9933     2.0087     0.2813 C.ar    
  27 F27            0.0385     5.2704     1.5497 F       
  28 F28           -1.7458     3.6779     2.8784 F       
  29 C29            7.4651    -4.7587    -0.8523 C.3     
  30 C30            7.4860    -6.1854    -1.4180 C.3     
  31 C31            6.0307    -6.2091    -0.9226 C.3     
  32 H32            3.1291    -2.1935    -0.8830 H       
  33 H33           -1.5466     1.1309     2.3541 H       
  34 H34            3.4535    -5.0941    -0.7905 H       
  35 H35            4.4030    -2.8335    -3.6134 H       
  36 H36            3.1009    -3.3834    -4.6952 H       
  37 H37            2.7097    -2.4249    -3.2473 H       
  38 H38            4.0043    -6.4863    -2.8993 H       
  39 H39            3.9602    -5.6711    -4.4810 H       
  40 H40            5.2053    -5.2312    -3.2875 H       
  41 H41           -2.0678    -0.6651     2.7403 H       
  42 H42           -2.6199     0.0676     1.2119 H       
  43 H43           -4.0513    -1.8721     2.0321 H       
  44 H44           -3.4045    -2.0726     0.3868 H       
  45 H45           -2.0432    -3.1902     2.8750 H       
  46 H46           -3.1794    -4.1255     1.8724 H       
  47 H47           -1.7425    -3.9442    -0.0673 H       
  48 H48           -0.6966    -4.4273     1.2938 H       
  49 H49            1.1292    -4.2073    -2.4941 H       
  50 H50            1.5204    -5.1659    -3.9420 H       
  51 H51            1.6965    -5.8859    -2.3237 H       
  52 H52            1.6724     4.0061    -0.0425 H       
  53 H53            1.7095     1.5738    -0.4001 H       
  54 H54            8.0054    -4.0396    -1.4680 H       
  55 H55            7.7421    -4.7051     0.2006 H       
  56 H56            7.5936    -6.2350    -2.5016 H       
  57 H57            8.1484    -6.8677    -0.8853 H       
  58 H58            5.9292    -6.5414     0.1105 H       
  59 H59            5.3497    -6.7239    -1.6004 H       
@<TRIPOS>BOND
   1    1    2 1
   2    1    9 ar
   3    1   26 ar
   4    2    3 1
   5    2    6 2
   6    3    4 1
   7    3   17 1
   8    4    5 2
   9    4   20 1
  10    5    6 1
  11    5    7 1
  12    7    8 am
  13    7   10 2
  14    8   11 1
  15    8   32 1
  16    9   23 ar
  17    9   33 1
  18   11   12 1
  19   11   13 1
  20   11   34 1
  21   12   14 1
  22   12   16 1
  23   12   21 1
  24   13   15 am
  25   13   22 2
  26   14   35 1
  27   14   36 1
  28   14   37 1
  29   15   29 1
  30   15   31 1
  31   16   38 1
  32   16   39 1
  33   16   40 1
  34   17   18 1
  35   17   41 1
  36   17   42 1
  37   18   19 1
  38   18   43 1
  39   18   44 1
  40   19   20 1
  41   19   45 1
  42   19   46 1
  43   20   47 1
  44   20   48 1
  45   21   49 1
  46   21   50 1
  47   21   51 1
  48   23   24 ar
  49   23   28 1
  50   24   25 ar
  51   24   27 1
  52   25   26 ar
  53   25   52 1
  54   26   53 1
  55   29   30 1
  56   29   54 1
  57   29   55 1
  58   30   31 1
  59   30   56 1
  60   30   57 1
  61   31   58 1
  62   31   59 1

#	End of record

