#	Name: ASD05590005
#	Creating user name:	WinNT
#	Creation time:	15. 06. 2019 21:01

#	Modifying user name:	WinNT
#	Modification time:	15. 06. 2019 21:01

#	Program:	/corina/corina34_cracker 3.40 0067  02.08.2006

@<TRIPOS>MOLECULE
ASD05590005
  28   28    0    0    0
SMALL
NO_CHARGES


@<TRIPOS>ATOM
   1 C1            -0.0184     1.5028     0.0103 C.3     
   2 C2             0.0021    -0.0041     0.0020 C.2     
   3 O3             1.3223     1.9974     0.0002 O.3     
   4 C4            -1.2926    -0.7753     0.0102 C.3     
   5 O5             1.0559    -0.5936    -0.0112 O.2     
   6 C6            -1.0677    -2.1561    -0.6090 C.3     
   7 C7            -2.3821    -2.9391    -0.6006 C.3     
   8 C8            -2.1605    -4.2992    -1.2106 C.2     
   9 C9            -2.4455    -5.4817    -0.6325 C.2     
  10 N10           -2.0906    -6.4554    -1.5267 N.pl3   
  11 C11           -1.6008    -5.8336    -2.6209 C.2     
  12 N12           -1.6504    -4.5441    -2.4266 N.2     
  13 C13           -1.7814    -0.9359     1.4511 C.3     
  14 O14           -2.2739    -0.0667    -0.7494 O.3     
  15 H15           -0.5455     1.8639    -0.8728 H       
  16 H16           -0.5286     1.8543     0.9071 H       
  17 H17            1.3855     2.9623     0.0047 H       
  18 H18           -0.7195    -2.0417    -1.6355 H       
  19 H19           -0.3192    -2.6966    -0.0296 H       
  20 H20           -2.7303    -3.0536     0.4259 H       
  21 H21           -3.1306    -2.3986    -1.1801 H       
  22 H22           -2.8717    -5.6327     0.3483 H       
  23 H23           -2.1751    -7.4132    -1.3984 H       
  24 H24           -1.2329    -6.3224    -3.5109 H       
  25 H25           -1.9417     0.0478     1.8923 H       
  26 H26           -2.7178    -1.4937     1.4571 H       
  27 H27           -1.0329    -1.4764     2.0306 H       
  28 H28           -2.0302     0.0719    -1.6749 H       
@<TRIPOS>BOND
   1    1    2 1
   2    1    3 1
   3    1   15 1
   4    1   16 1
   5    2    4 1
   6    2    5 2
   7    3   17 1
   8    4    6 1
   9    4   13 1
  10    4   14 1
  11    6    7 1
  12    6   18 1
  13    6   19 1
  14    7    8 1
  15    7   20 1
  16    7   21 1
  17    8    9 2
  18    8   12 1
  19    9   10 1
  20    9   22 1
  21   10   11 1
  22   10   23 1
  23   11   12 2
  24   11   24 1
  25   13   25 1
  26   13   26 1
  27   13   27 1
  28   14   28 1

#	End of record

