#	Name: ASD02030665
#	Creating user name:	WinNT
#	Creation time:	15. 06. 2019 20:15

#	Modifying user name:	WinNT
#	Modification time:	15. 06. 2019 20:15

#	Program:	/corina/corina34_cracker 3.40 0067  02.08.2006

@<TRIPOS>MOLECULE
ASD02030665
  38   41    0    0    0
SMALL
NO_CHARGES


@<TRIPOS>ATOM
   1 C1            -0.0308     1.3115     0.4256 C.2     
   2 N2            -0.0053    -0.0215     0.2122 N.am    
   3 N3             2.3344    -0.0361     0.3984 N.2     
   4 C4             2.3568     1.2702     0.6110 C.2     
   5 C5             1.1768     1.9880     0.6322 C.2     
   6 C6             1.1889    -0.6865     0.2011 C.2     
   7 O7            -1.0904     1.9180     0.4333 O.2     
   8 C8             3.6708     1.9747     0.8307 C.3     
   9 N9             4.0455     1.8798     2.2438 N.pl3   
  10 C10            4.2139     2.3684     4.3778 C.2     
  11 N11            3.6981     2.7889     3.2513 N.2     
  12 C12            4.7817     0.8979     2.8058 C.2     
  13 C13            4.9028     1.1775     4.1257 C.2     
  14 C14            4.0854     3.0483     5.7165 C.3     
  15 Cl15           5.4524    -0.4768     1.9848 Cl      
  16 F16            3.2292     4.1486     5.6005 F       
  17 F17            3.5621     2.1465     6.6493 F       
  18 F18            5.3457     3.4811     6.1426 F       
  19 C19           -1.1724    -0.6939     0.0096 C.2     
  20 C20           -1.1722    -2.0297    -0.2059 C.2     
  21 C21            0.0373    -2.7399    -0.2235 C.2     
  22 C22            1.2098    -2.0756    -0.0214 C.2     
  23 C23           -2.4783     0.0581     0.0263 C.3     
  24 C24           -2.7634     1.0046    -1.1415 C.3     
  25 C25           -3.5236    -0.3181    -1.0257 C.3     
  26 C26           -1.7411     1.1110    -2.1953 C.1     
  27 N27           -0.9522     1.1931    -3.0086 N.1     
  28 Cl28          -2.6719    -2.8663    -0.4606 Cl      
  29 H29            1.1860     3.0541     0.8049 H       
  30 H30            4.4411     1.5062     0.2182 H       
  31 H31            3.5719     3.0235     0.5507 H       
  32 H32            5.4367     0.5857     4.8545 H       
  33 H33            0.0392    -3.8061    -0.3954 H       
  34 H34            2.1477    -2.6110    -0.0327 H       
  35 H35           -2.8390     0.3520     1.0120 H       
  36 H36           -3.3119     1.9211    -0.9242 H       
  37 H37           -3.2668    -1.1095    -1.7299 H       
  38 H38           -4.5723    -0.2718    -0.7322 H       
@<TRIPOS>BOND
   1    1    2 am
   2    1    5 1
   3    1    7 2
   4    2    6 1
   5    2   19 1
   6    3    4 1
   7    3    6 2
   8    4    5 2
   9    4    8 1
  10    5   29 1
  11    6   22 1
  12    8    9 1
  13    8   30 1
  14    8   31 1
  15    9   12 1
  16    9   11 1
  17   10   11 2
  18   10   13 1
  19   10   14 1
  20   12   13 2
  21   12   15 1
  22   13   32 1
  23   14   16 1
  24   14   17 1
  25   14   18 1
  26   19   20 2
  27   19   23 1
  28   20   21 1
  29   20   28 1
  30   21   22 2
  31   21   33 1
  32   22   34 1
  33   23   24 1
  34   23   25 1
  35   23   35 1
  36   24   25 1
  37   24   26 1
  38   24   36 1
  39   25   37 1
  40   25   38 1
  41   26   27 3

#	End of record

