#	Name: ASD03330560
#	Creating user name:	WinNT
#	Creation time:	15. 06. 2019 20:37

#	Modifying user name:	WinNT
#	Modification time:	15. 06. 2019 20:37

#	Program:	/corina/corina34_cracker 3.40 0067  02.08.2006

@<TRIPOS>MOLECULE
ASD03330560
  59   61    0    0    0
SMALL
NO_CHARGES


@<TRIPOS>ATOM
   1 C1            -0.2417     1.0060     0.8292 C.2     
   2 N2            -0.2157    -0.3371     1.0359 N.pl3   
   3 C3             1.0510     1.4351     0.8231 C.2     
   4 N4             1.8439     0.3571     1.0069 N.2     
   5 C5             1.0926    -0.7117     1.1298 C.2     
   6 C6             1.5826    -2.0924     1.3363 C.ar    
   7 C7             1.5036     2.8264     0.6469 C.2     
   8 O8             0.6890     3.7155     0.4882 O.2     
   9 C9             3.2703     4.4969     0.4866 C.3     
  10 N10            2.8203     3.1137     0.6617 N.am    
  11 C11            3.3669     4.8166    -1.0065 C.3     
  12 C12            1.9702     4.7701    -1.6294 C.3     
  13 C13            3.9614     6.2142    -1.1913 C.3     
  14 C14            4.2656     3.7853    -1.6918 C.3     
  15 C15            4.6240     4.6695     1.1259 C.2     
  16 N16            5.1210     5.9058     1.3283 N.am    
  17 O17            5.2663     3.6958     1.4582 O.2     
  18 C18            6.4666     6.0726     1.8831 C.3     
  19 C19           -1.3931    -1.2025     1.1487 C.3     
  20 C20           -2.3648    -0.8796     0.0093 C.3     
  21 C21           -3.2968     0.2517     0.4314 C.3     
  22 N22           -2.6106     1.1989     1.3121 N.3     
  23 C23           -1.4791     1.8417     0.6275 C.3     
  24 C24           -3.5464     2.2018     1.8379 C.3     
  25 C25            2.8296    -2.4825     0.8486 C.ar    
  26 N26            3.2663    -3.7116     1.0322 N.ar    
  27 C27            2.5534    -4.6149     1.6769 C.ar    
  28 C28            1.3066    -4.3065     2.1910 C.ar    
  29 C29            0.8051    -3.0271     2.0293 C.ar    
  30 H30            2.5571     5.1733     0.9577 H       
  31 H31            3.4701     2.4047     0.7883 H       
  32 H32            1.3299     5.5048    -1.1411 H       
  33 H33            2.0390     4.9979    -2.6931 H       
  34 H34            1.5466     3.7744    -1.4977 H       
  35 H35            4.9298     6.2658    -0.6938 H       
  36 H36            4.0880     6.4174    -2.2547 H       
  37 H37            3.2900     6.9550    -0.7573 H       
  38 H38            3.8420     2.7897    -1.5601 H       
  39 H39            4.3344     4.0131    -2.7555 H       
  40 H40            5.2606     3.8185    -1.2480 H       
  41 H41            4.5878     6.6851     1.1066 H       
  42 H42            7.1934     5.6017     1.2213 H       
  43 H43            6.6929     7.1349     1.9742 H       
  44 H44            6.5146     5.6052     2.8667 H       
  45 H45           -1.0860    -2.2461     1.0808 H       
  46 H46           -1.8834    -1.0275     2.1063 H       
  47 H47           -1.8011    -0.5748    -0.8725 H       
  48 H48           -2.9540    -1.7657    -0.2267 H       
  49 H49           -3.6459     0.7778    -0.4571 H       
  50 H50           -4.1543    -0.1687     0.9569 H       
  51 H51           -1.3188     2.8364     1.0435 H       
  52 H52           -1.6954     1.9215    -0.4379 H       
  53 H53           -4.3322     1.7032     2.4054 H       
  54 H54           -3.0106     2.8926     2.4889 H       
  55 H55           -3.9907     2.7536     1.0096 H       
  56 H56            3.4425    -1.7708     0.3154 H       
  57 H57            2.9492    -5.6115     1.8052 H       
  58 H58            0.7325    -5.0554     2.7164 H       
  59 H59           -0.1651    -2.7589     2.4208 H       
@<TRIPOS>BOND
   1    1    2 1
   2    1    3 2
   3    1   23 1
   4    2   19 1
   5    2    5 1
   6    3    4 1
   7    3    7 1
   8    4    5 2
   9    5    6 1
  10    6   25 ar
  11    6   29 ar
  12    7    8 2
  13    7   10 am
  14    9   10 1
  15    9   11 1
  16    9   15 1
  17    9   30 1
  18   10   31 1
  19   11   12 1
  20   11   13 1
  21   11   14 1
  22   12   32 1
  23   12   33 1
  24   12   34 1
  25   13   35 1
  26   13   36 1
  27   13   37 1
  28   14   38 1
  29   14   39 1
  30   14   40 1
  31   15   16 am
  32   15   17 2
  33   16   18 1
  34   16   41 1
  35   18   42 1
  36   18   43 1
  37   18   44 1
  38   19   20 1
  39   19   45 1
  40   19   46 1
  41   20   21 1
  42   20   47 1
  43   20   48 1
  44   21   22 1
  45   21   49 1
  46   21   50 1
  47   22   23 1
  48   22   24 1
  49   23   51 1
  50   23   52 1
  51   24   53 1
  52   24   54 1
  53   24   55 1
  54   25   26 ar
  55   25   56 1
  56   26   27 ar
  57   27   28 ar
  58   27   57 1
  59   28   29 ar
  60   28   58 1
  61   29   59 1

#	End of record

