#	Name: ASD01912376
#	Creating user name:	WinNT
#	Creation time:	15. 06. 2019 19:59

#	Modifying user name:	WinNT
#	Modification time:	15. 06. 2019 19:59

#	Program:	/corina/corina34_cracker 3.40 0067  02.08.2006

@<TRIPOS>MOLECULE
ASD01912376
  45   47    0    0    0
SMALL
NO_CHARGES


@<TRIPOS>ATOM
   1 C1             0.9313     3.5365     5.1538 C.ar    
   2 C2             1.0272     2.3508     5.8599 C.ar    
   3 C3             2.2283     1.6546     5.8647 C.ar    
   4 C4             3.2969     2.1751     5.1573 C.ar    
   5 C5             3.1310     3.3780     4.4654 C.ar    
   6 N6             1.9623     4.0128     4.4873 N.ar    
   7 C7             4.2268     3.9309     3.7279 C.1     
   8 C8             5.1252     4.3842     3.1232 C.1     
   9 C9             6.2211     4.9372     2.3856 C.2     
  10 N10            5.4560     7.6871    -0.4264 N.am    
  11 C11            6.7299     6.9592    -0.4901 C.3     
  12 C12            7.2135     6.6842     0.9394 C.3     
  13 C13            6.0680     6.0837     1.7244 C.2     
  14 C14            4.7448     6.8169     1.7408 C.3     
  15 C15            4.3231     7.0886     0.2912 C.3     
  16 C16            5.3297     8.8930    -1.0150 C.2     
  17 O17            6.3023     9.4339    -1.5099 O.2     
  18 C18            4.0659     9.5313    -1.0580 C.2     
  19 C19            3.8511    10.8679    -0.8656 C.2     
  20 C20            2.5419    11.2549    -0.9547 C.2     
  21 C21            1.6641    10.2470    -1.2205 C.2     
  22 S22            2.5345     8.7269    -1.3743 S.3     
  23 S23           -0.0791    10.4390    -1.3907 S.3     
  24 C24           -0.5531     8.7244    -1.7249 C.3     
  25 C25           -0.3734     4.2906     5.1421 C.3     
  26 H26            0.1750     1.9701     6.4032 H       
  27 H27            2.3264     0.7271     6.4093 H       
  28 H28            4.2457     1.6595     5.1400 H       
  29 H29            7.1716     4.4248     2.3654 H       
  30 H30            6.5854     6.0149    -1.0150 H       
  31 H31            7.4696     7.5626    -1.0164 H       
  32 H32            8.0490     5.9846     0.9160 H       
  33 H33            7.5287     7.6175     1.4061 H       
  34 H34            3.9909     6.2027     2.2333 H       
  35 H35            4.8550     7.7612     2.2740 H       
  36 H36            3.4782     7.7771     0.2794 H       
  37 H37            4.0403     6.1517    -0.1888 H       
  38 H38            4.6515    11.5630    -0.6594 H       
  39 H39            2.2283    12.2801    -0.8242 H       
  40 H40           -0.0549     8.3798    -2.6310 H       
  41 H41           -0.2567     8.0953    -0.8856 H       
  42 H42           -1.6332     8.6656    -1.8593 H       
  43 H43           -0.3942     4.9937     5.9747 H       
  44 H44           -0.4693     4.8362     4.2033 H       
  45 H45           -1.2004     3.5873     5.2397 H       
@<TRIPOS>BOND
   1    1    2 ar
   2    1    6 ar
   3    1   25 1
   4    2    3 ar
   5    2   26 1
   6    3    4 ar
   7    3   27 1
   8    4    5 ar
   9    4   28 1
  10    5    6 ar
  11    5    7 1
  12    7    8 3
  13    8    9 1
  14    9   13 2
  15    9   29 1
  16   10   11 1
  17   10   15 1
  18   10   16 am
  19   11   12 1
  20   11   30 1
  21   11   31 1
  22   12   13 1
  23   12   32 1
  24   12   33 1
  25   13   14 1
  26   14   15 1
  27   14   34 1
  28   14   35 1
  29   15   36 1
  30   15   37 1
  31   16   17 2
  32   16   18 1
  33   18   19 2
  34   18   22 1
  35   19   20 1
  36   19   38 1
  37   20   21 2
  38   20   39 1
  39   21   22 1
  40   21   23 1
  41   23   24 1
  42   24   40 1
  43   24   41 1
  44   24   42 1
  45   25   43 1
  46   25   44 1
  47   25   45 1

#	End of record

