#	Name: ASD02560287
#	Creating user name:	WinNT
#	Creation time:	15. 06. 2019 20:25

#	Modifying user name:	WinNT
#	Modification time:	15. 06. 2019 20:25

#	Program:	/corina/corina34_cracker 3.40 0067  02.08.2006

@<TRIPOS>MOLECULE
ASD02560287
  32   34    0    0    0
SMALL
NO_CHARGES


@<TRIPOS>ATOM
   1 C1            -0.0291     1.3480    -0.1099 C.2     
   2 O2            -0.0054     0.0031    -0.0344 O.3     
   3 C3            -1.2899    -0.3991    -0.0499 C.2     
   4 N4            -2.0334     0.6774    -0.1316 N.2     
   5 N5            -1.2756     1.7167    -0.1614 N.2     
   6 N6            -1.7414    -1.7053     0.0091 N.pl3   
   7 C7             1.1705     2.2601    -0.1253 C.3     
   8 C8             1.5286     2.6430     1.2875 C.ar    
   9 C9             2.4172     1.8676     2.0105 C.ar    
  10 C10            2.7460     2.2199     3.3074 C.ar    
  11 C11            2.1867     3.3464     3.8808 C.ar    
  12 C12            1.2983     4.1213     3.1591 C.ar    
  13 C13            0.9732     3.7732     1.8600 C.ar    
  14 C14           -3.1106    -1.9676     0.1264 C.ar    
  15 C15           -3.5811    -3.2719     0.0251 C.ar    
  16 C16           -4.9339    -3.5275     0.1419 C.ar    
  17 C17           -5.8197    -2.4864     0.3595 C.ar    
  18 C18           -5.3536    -1.1877     0.4607 C.ar    
  19 C19           -4.0015    -0.9266     0.3500 C.ar    
  20 Cl20           3.1193     0.4524     1.2907 Cl      
  21 Cl21          -0.1421     4.7469     0.9535 Cl      
  22 Cl22          -7.5188    -2.8109     0.5052 Cl      
  23 Cl23          -2.4703    -4.5777    -0.2484 Cl      
  24 H24           -1.1086    -2.4394    -0.0309 H       
  25 H25            2.0128     1.7448    -0.5867 H       
  26 H26            0.9367     3.1582    -0.6970 H       
  27 H27            3.4395     1.6144     3.8721 H       
  28 H28            2.4436     3.6210     4.8932 H       
  29 H29            0.8611     5.0010     3.6078 H       
  30 H30           -5.3004    -4.5403     0.0630 H       
  31 H31           -6.0473    -0.3775     0.6305 H       
  32 H32           -3.6387     0.0876     0.4291 H       
@<TRIPOS>BOND
   1    1    2 1
   2    1    7 1
   3    1    5 2
   4    2    3 1
   5    3    4 2
   6    3    6 1
   7    4    5 1
   8    6   14 1
   9    6   24 1
  10    7    8 1
  11    7   25 1
  12    7   26 1
  13    8    9 ar
  14    8   13 ar
  15    9   10 ar
  16    9   20 1
  17   10   11 ar
  18   10   27 1
  19   11   12 ar
  20   11   28 1
  21   12   13 ar
  22   12   29 1
  23   13   21 1
  24   14   15 ar
  25   14   19 ar
  26   15   16 ar
  27   15   23 1
  28   16   17 ar
  29   16   30 1
  30   17   18 ar
  31   17   22 1
  32   18   19 ar
  33   18   31 1
  34   19   32 1

#	End of record

