#	Name: ASD01200324
#	Creating user name:	WinNT
#	Creation time:	15. 06. 2019 19:08

#	Modifying user name:	WinNT
#	Modification time:	15. 06. 2019 19:08

#	Program:	/corina/corina34_cracker 3.40 0067  02.08.2006

@<TRIPOS>MOLECULE
ASD01200324
  49   52    0    0    0
SMALL
NO_CHARGES


@<TRIPOS>ATOM
   1 C1            -0.0167     1.3780     0.0096 C.ar    
   2 C2             0.0021    -0.0041     0.0020 C.ar    
   3 C3             1.2083    -0.6792    -0.0132 C.ar    
   4 C4             2.3967     0.0287    -0.0208 C.ar    
   5 C5             2.3773     1.4123    -0.0131 C.ar    
   6 C6             1.1709     2.0861     0.0021 C.ar    
   7 S7             1.2320    -2.4410    -0.0223 S.o     
   8 C8             1.3743    -2.8380    -1.7866 C.3     
   9 O9             2.4553    -2.7476     0.6324 O.2     
  10 C10            1.1495     3.5929     0.0104 C.3     
  11 C11            1.8754     4.1063     1.2556 C.3     
  12 C12            1.8410     4.1119    -1.2239 C.2     
  13 C13            1.7465     5.6291     1.3295 C.3     
  14 C14            0.4607     7.4440     2.2834 C.3     
  15 C15            0.2897     6.0342     1.6651 C.3     
  16 C16            2.5744     6.1845     2.5068 C.3     
  17 C17            1.7569     7.3384     3.1133 C.3     
  18 C18            1.2239     4.4618    -2.3634 C.2     
  19 N19            3.1912     4.3021    -1.3474 N.pl3   
  20 C20            2.2653     4.9062    -3.2912 C.ar    
  21 C21            2.2639     5.3827    -4.6044 C.ar    
  22 C22            3.4858     4.7853    -2.5997 C.ar    
  23 N23            4.6200     5.1236    -3.1988 N.ar    
  24 C24            4.6410     5.5718    -4.4358 C.ar    
  25 C25            3.4772     5.7155    -5.1760 C.ar    
  26 Cl26           3.9119    -0.8184    -0.0393 Cl      
  27 H27           -0.9593     1.9050     0.0170 H       
  28 H28           -0.9258    -0.5566     0.0083 H       
  29 H29            3.3049     1.9655    -0.0187 H       
  30 H30            2.2922    -2.4047    -2.1836 H       
  31 H31            1.3984    -3.9202    -1.9146 H       
  32 H32            0.5178    -2.4278    -2.3215 H       
  33 H33            0.1169     3.9416     0.0222 H       
  34 H34            1.4306     3.6604     2.1452 H       
  35 H35            2.9292     3.8331     1.2004 H       
  36 H36            2.0646     6.0839     0.3914 H       
  37 H37            0.5696     8.1936     1.4996 H       
  38 H38           -0.3858     7.6836     2.9268 H       
  39 H39           -0.3166     6.0800     0.7605 H       
  40 H40           -0.1458     5.3452     2.3888 H       
  41 H41            2.7315     5.4057     3.2530 H       
  42 H42            3.5337     6.5557     2.1463 H       
  43 H43            2.3194     8.2697     3.0471 H       
  44 H44            1.5172     7.1196     4.1538 H       
  45 H45            0.1624     4.4226    -2.5585 H       
  46 H46            3.8440     4.1227    -0.6527 H       
  47 H47            1.3417     5.4875    -5.1567 H       
  48 H48            5.5871     5.8357    -4.8848 H       
  49 H49            3.5184     6.0875    -6.1891 H       
@<TRIPOS>BOND
   1    1    2 ar
   2    1    6 ar
   3    1   27 1
   4    2    3 ar
   5    2   28 1
   6    3    4 ar
   7    3    7 1
   8    4    5 ar
   9    4   26 1
  10    5    6 ar
  11    5   29 1
  12    6   10 1
  13    7    8 1
  14    7    9 2
  15    8   30 1
  16    8   31 1
  17    8   32 1
  18   10   11 1
  19   10   12 1
  20   10   33 1
  21   11   13 1
  22   11   34 1
  23   11   35 1
  24   12   19 1
  25   12   18 2
  26   13   16 1
  27   13   15 1
  28   13   36 1
  29   14   15 1
  30   14   17 1
  31   14   37 1
  32   14   38 1
  33   15   39 1
  34   15   40 1
  35   16   17 1
  36   16   41 1
  37   16   42 1
  38   17   43 1
  39   17   44 1
  40   18   20 1
  41   18   45 1
  42   19   22 1
  43   19   46 1
  44   20   22 ar
  45   20   21 ar
  46   21   25 ar
  47   21   47 1
  48   22   23 ar
  49   23   24 ar
  50   24   25 ar
  51   24   48 1
  52   25   49 1

#	End of record

