#	Name: ASD01814087
#	Creating user name:	WinNT
#	Creation time:	15. 06. 2019 19:31

#	Modifying user name:	WinNT
#	Modification time:	15. 06. 2019 19:31

#	Program:	/corina/corina34_cracker 3.40 0067  02.08.2006

@<TRIPOS>MOLECULE
ASD01814087
  51   55    0    0    0
SMALL
NO_CHARGES


@<TRIPOS>ATOM
   1 C1             1.1550     2.2510    -0.5134 C.ar    
   2 C2             0.7787     0.9157    -0.4983 C.ar    
   3 C3             1.7215    -0.0800    -0.3469 C.ar    
   4 C4             3.0685     0.2526    -0.2070 C.ar    
   5 C5             3.4449     1.6060    -0.2229 C.ar    
   6 C6             2.4801     2.6015    -0.3768 C.ar    
   7 N7             4.0210    -0.7324    -0.0539 N.pl3   
   8 C8             5.3254    -0.4649     0.0853 C.2     
   9 C9             5.8156     0.8256     0.0858 C.2     
  10 C10            4.8728     1.9444    -0.0741 C.2     
  11 O11            5.2553     3.1013    -0.0806 O.2     
  12 C12            7.2550     1.0781     0.2423 C.2     
  13 O13            7.7216     2.3429     0.2411 O.3     
  14 O14            8.0249     0.1464     0.3728 O.2     
  15 C15            3.5871    -2.1316    -0.0427 C.3     
  16 C16            3.4445    -2.6248    -1.4595 C.ar    
  17 C17            4.5268    -2.5715    -2.3222 C.ar    
  18 C18            4.3977    -3.0233    -3.6233 C.ar    
  19 C19            3.1821    -3.5305    -4.0626 C.ar    
  20 C20            2.0992    -3.5824    -3.1936 C.ar    
  21 C21            2.2351    -3.1349    -1.8943 C.ar    
  22 N22            3.0477    -3.9880    -5.3781 N.pl3   
  23 F23            1.3401    -1.3760    -0.3337 F       
  24 N24            3.6814    -3.4374    -6.4968 N.2     
  25 C25            3.3449    -4.0969    -7.5722 C.2     
  26 C26            2.4266    -5.1632    -7.1716 C.ar    
  27 C27            2.2773    -5.0527    -5.7758 C.ar    
  28 F28            5.7088    -2.0777    -1.8929 F       
  29 O29            3.7710    -3.8393    -8.8367 O.3     
  30 C30            4.6729    -2.7440    -9.0068 C.3     
  31 C31            1.7463    -6.1703    -7.8629 C.ar    
  32 C32            0.9400    -7.0333    -7.1780 C.ar    
  33 C33            0.7896    -6.9196    -5.8015 C.ar    
  34 C34            1.4491    -5.9475    -5.1036 C.ar    
  35 H35            0.4060     3.0191    -0.6373 H       
  36 H36           -0.2633     0.6530    -0.6059 H       
  37 H37            2.7705     3.6416    -0.3892 H       
  38 H38            6.0171    -1.2861     0.2015 H       
  39 H39            8.6757     2.4589     0.3471 H       
  40 H40            4.3272    -2.7373     0.4801 H       
  41 H41            2.6272    -2.2102     0.4677 H       
  42 H42            5.2412    -2.9813    -4.2966 H       
  43 H43            1.1526    -3.9761    -3.5331 H       
  44 H44            1.3932    -3.1758    -1.2191 H       
  45 H45            4.1967    -1.8249    -8.6652 H       
  46 H46            5.5764    -2.9233    -8.4241 H       
  47 H47            4.9334    -2.6482   -10.0608 H       
  48 H48            1.8578    -6.2649    -8.9330 H       
  49 H49            0.4139    -7.8113    -7.7113 H       
  50 H50            0.1476    -7.6111    -5.2761 H       
  51 H51            1.3239    -5.8699    -4.0337 H       
@<TRIPOS>BOND
   1    1    2 ar
   2    1    6 ar
   3    1   35 1
   4    2    3 ar
   5    2   36 1
   6    3    4 ar
   7    3   23 1
   8    4    5 ar
   9    4    7 1
  10    5    6 ar
  11    5   10 1
  12    6   37 1
  13    7    8 1
  14    7   15 1
  15    8    9 2
  16    8   38 1
  17    9   10 1
  18    9   12 1
  19   10   11 2
  20   12   13 1
  21   12   14 2
  22   13   39 1
  23   15   16 1
  24   15   40 1
  25   15   41 1
  26   16   17 ar
  27   16   21 ar
  28   17   18 ar
  29   17   28 1
  30   18   19 ar
  31   18   42 1
  32   19   20 ar
  33   19   22 1
  34   20   21 ar
  35   20   43 1
  36   21   44 1
  37   22   24 1
  38   22   27 1
  39   24   25 2
  40   25   26 1
  41   25   29 1
  42   26   27 ar
  43   26   31 ar
  44   27   34 ar
  45   29   30 1
  46   30   45 1
  47   30   46 1
  48   30   47 1
  49   31   32 ar
  50   31   48 1
  51   32   33 ar
  52   32   49 1
  53   33   34 ar
  54   33   50 1
  55   34   51 1

#	End of record

