#	Name: ASD01148013
#	Creating user name:	WinNT
#	Creation time:	15. 06. 2019 19:01

#	Modifying user name:	WinNT
#	Modification time:	15. 06. 2019 19:01

#	Program:	/corina/corina34_cracker 3.40 0067  02.08.2006

@<TRIPOS>MOLECULE
ASD01148013
  31   31    0    0    0
SMALL
NO_CHARGES


@<TRIPOS>ATOM
   1 C1            -0.0184     1.5028     0.0103 C.2     
   2 C2             0.0021    -0.0041     0.0020 C.3     
   3 C3            -0.2550    -0.5098    -1.4189 C.3     
   4 O4             1.0236     2.1234     0.0037 O.2     
   5 N5            -1.1946     2.1607     0.0195 N.am    
   6 C6            -1.2145     3.6256     0.0275 C.3     
   7 C7            -2.6419     4.1085     0.0369 C.ar    
   8 C8            -3.2905     4.3234     1.2387 C.ar    
   9 C9            -4.5994     4.7667     1.2486 C.ar    
  10 C10           -5.2612     4.9957     0.0542 C.ar    
  11 C11           -4.6106     4.7802    -1.1489 C.ar    
  12 C12           -3.3000     4.3419    -1.1563 C.ar    
  13 F13           -6.5409     5.4287     0.0626 F       
  14 O14           -0.3515    -1.9355    -1.4069 O.3     
  15 C15           -0.5922    -2.5126    -2.6919 C.3     
  16 F16           -1.7975    -2.0216    -3.2052 F       
  17 F17            0.4544    -2.1769    -3.5574 F       
  18 N18            1.3145    -0.4785     0.4607 N.3     
  19 H19           -0.7738    -0.3816     0.6680 H       
  20 H20           -1.1871    -0.0857    -1.7924 H       
  21 H21            0.5674    -0.2067    -2.0668 H       
  22 H22           -2.0280     1.6644     0.0207 H       
  23 H23           -0.7014     3.9910     0.9171 H       
  24 H24           -0.7098     4.0007    -0.8628 H       
  25 H25           -2.7742     4.1443     2.1703 H       
  26 H26           -5.1060     4.9341     2.1876 H       
  27 H27           -5.1259     4.9584    -2.0812 H       
  28 H28           -2.7910     4.1776    -2.0945 H       
  29 H29           -0.6522    -3.5968    -2.5977 H       
  30 H30            1.3326    -1.4853     0.5256 H       
  31 H31            2.0512    -0.1417    -0.1409 H       
@<TRIPOS>BOND
   1    1    2 1
   2    1    4 2
   3    1    5 am
   4    2    3 1
   5    2   18 1
   6    2   19 1
   7    3   14 1
   8    3   20 1
   9    3   21 1
  10    5    6 1
  11    5   22 1
  12    6    7 1
  13    6   23 1
  14    6   24 1
  15    7    8 ar
  16    7   12 ar
  17    8    9 ar
  18    8   25 1
  19    9   10 ar
  20    9   26 1
  21   10   11 ar
  22   10   13 1
  23   11   12 ar
  24   11   27 1
  25   12   28 1
  26   14   15 1
  27   15   16 1
  28   15   17 1
  29   15   29 1
  30   18   30 1
  31   18   31 1

#	End of record

