#	Name: ASD03082307
#	Creating user name:	WinNT
#	Creation time:	15. 06. 2019 20:27

#	Modifying user name:	WinNT
#	Modification time:	15. 06. 2019 20:27

#	Program:	/corina/corina34_cracker 3.40 0067  02.08.2006

@<TRIPOS>MOLECULE
ASD03082307
  51   54    0    0    0
SMALL
NO_CHARGES


@<TRIPOS>ATOM
   1 N1            -0.0253     0.3037     0.5849 N.pl3   
   2 N2             0.2621    -1.0449     0.3191 N.2     
   3 C3             1.5574    -1.1973     0.4689 C.2     
   4 N4             2.0969    -0.0258     0.8121 N.2     
   5 C5             1.1538     0.8927     0.8868 C.2     
   6 N6             2.2578    -2.3926     0.2972 N.pl3   
   7 C7             3.6559    -2.4021     0.3740 C.ar    
   8 C8             4.3544    -1.2070     0.4783 C.ar    
   9 C9             5.7355    -1.2187     0.5546 C.ar    
  10 C10            6.4221    -2.4231     0.5265 C.ar    
  11 C11            5.7275    -3.6158     0.4220 C.ar    
  12 C12            4.3462    -3.6089     0.3518 C.ar    
  13 C13            1.3510     2.3154     1.2380 C.ar    
  14 C14           -1.3410     0.9465     0.5382 C.3     
  15 C15            0.2716     3.0962     1.6730 C.ar    
  16 C16            0.5043     4.4193     1.9894 C.ar    
  17 C17            1.7935     4.9313     1.8673 C.ar    
  18 N18            2.7930     4.1663     1.4529 N.ar    
  19 C19            2.6144     2.8977     1.1466 C.ar    
  20 C20           -2.0023     0.8358     1.8878 C.2     
  21 N21           -3.2287     1.3598     2.0823 N.am    
  22 C22           -3.8716     1.2523     3.3943 C.3     
  23 O23           -1.4309     0.2753     2.7990 O.2     
  24 C24           -3.9189     2.0370     0.9817 C.3     
  25 F25            7.7711    -2.4324     0.6006 F       
  26 F26            6.4158    -0.0559     0.6561 F       
  27 N27            2.0348     6.2612     2.1834 N.pl3   
  28 C28            0.9438     7.1072     2.6736 C.3     
  29 C29            1.2850     8.1563     3.7337 C.3     
  30 C30            0.9770     8.5903     2.2992 C.3     
  31 F31            3.6684    -4.7736     0.2554 F       
  32 H32            1.7760    -3.2166     0.1246 H       
  33 H33            3.8199    -0.2687     0.4996 H       
  34 H34            6.2642    -4.5527     0.3996 H       
  35 H35           -1.2225     1.9980     0.2768 H       
  36 H36           -1.9599     0.4532    -0.2112 H       
  37 H37           -0.7184     2.6730     1.7581 H       
  38 H38           -0.3042     5.0504     2.3276 H       
  39 H39            3.4532     2.3052     0.8123 H       
  40 H40           -3.2116     0.7207     4.0798 H       
  41 H41           -4.0720     2.2505     3.7836 H       
  42 H42           -4.8095     0.7057     3.2956 H       
  43 H43           -4.5158     1.3131     0.4270 H       
  44 H44           -4.5702     2.8129     1.3839 H       
  45 H45           -3.1841     2.4888     0.3153 H       
  46 H46            2.9258     6.6304     2.0797 H       
  47 H47           -0.0320     6.6257     2.7378 H       
  48 H48            0.5335     8.3653     4.4950 H       
  49 H49            2.3212     8.2171     4.0664 H       
  50 H50            1.8106     8.9366     1.6882 H       
  51 H51            0.0229     9.0848     2.1169 H       
@<TRIPOS>BOND
   1    1    2 1
   2    1    5 1
   3    1   14 1
   4    2    3 2
   5    3    4 1
   6    3    6 1
   7    4    5 2
   8    5   13 1
   9    6    7 1
  10    6   32 1
  11    7    8 ar
  12    7   12 ar
  13    8    9 ar
  14    8   33 1
  15    9   10 ar
  16    9   26 1
  17   10   11 ar
  18   10   25 1
  19   11   12 ar
  20   11   34 1
  21   12   31 1
  22   13   15 ar
  23   13   19 ar
  24   14   20 1
  25   14   35 1
  26   14   36 1
  27   15   16 ar
  28   15   37 1
  29   16   17 ar
  30   16   38 1
  31   17   18 ar
  32   17   27 1
  33   18   19 ar
  34   19   39 1
  35   20   21 am
  36   20   23 2
  37   21   22 1
  38   21   24 1
  39   22   40 1
  40   22   41 1
  41   22   42 1
  42   24   43 1
  43   24   44 1
  44   24   45 1
  45   27   28 1
  46   27   46 1
  47   28   29 1
  48   28   30 1
  49   28   47 1
  50   29   30 1
  51   29   48 1
  52   29   49 1
  53   30   50 1
  54   30   51 1

#	End of record

