#	Name: ASD03540441
#	Creating user name:	WinNT
#	Creation time:	15. 06. 2019 20:43

#	Modifying user name:	WinNT
#	Modification time:	15. 06. 2019 20:43

#	Program:	/corina/corina34_cracker 3.40 0067  02.08.2006

@<TRIPOS>MOLECULE
ASD03540441
  61   64    0    0    0
SMALL
NO_CHARGES


@<TRIPOS>ATOM
   1 C1            10.8003     0.5432     2.6539 C.2     
   2 C2            10.5429    -0.9389     2.5625 C.3     
   3 O3             9.9935     1.3250     2.2092 O.2     
   4 O4            11.9232     0.9949     3.2341 O.3     
   5 C5             9.2215    -1.1780     1.8786 C.ar    
   6 C6             9.1700    -1.3187     0.5044 C.ar    
   7 C7             7.9579    -1.5380    -0.1230 C.ar    
   8 C8             6.7974    -1.6172     0.6239 C.ar    
   9 C9             6.8490    -1.4774     1.9982 C.ar    
  10 C10            8.0617    -1.2624     2.6260 C.ar    
  11 C11            5.4759    -1.8553    -0.0602 C.3     
  12 N12            5.4450    -3.1270    -3.5175 N.am    
  13 C13            5.2992    -2.3580    -2.4253 C.2     
  14 N14            5.6707    -2.7564    -1.1987 N.am    
  15 C15            6.2214    -3.9730    -0.9946 C.2     
  16 C16            6.4057    -4.8592    -2.1586 C.ar    
  17 C17            6.9649    -6.1244    -2.0308 C.ar    
  18 C18            7.1161    -6.9204    -3.1656 C.ar    
  19 C19            6.7067    -6.4437    -4.4170 C.ar    
  20 C20            6.1567    -5.1992    -4.5423 C.ar    
  21 C21            5.9982    -4.3921    -3.4229 C.ar    
  22 O22            6.5565    -4.3275     0.1191 O.2     
  23 O23            4.8089    -1.2530    -2.5537 O.2     
  24 C24            4.4960    -2.4885     0.9297 C.3     
  25 C25            7.7091    -8.2674    -3.0476 C.2     
  26 N26            7.8556    -9.0375    -4.1439 N.am    
  27 O27            8.0651    -8.6818    -1.9615 O.2     
  28 C28            8.4440   -10.3740    -4.0269 C.3     
  29 C29            8.4947   -11.0214    -5.3868 C.ar    
  30 C30            9.6077   -10.8539    -6.1898 C.ar    
  31 C31            9.6566   -11.4463    -7.4369 C.ar    
  32 C32            8.5877   -12.2098    -7.8832 C.ar    
  33 C33            7.4721   -12.3764    -7.0756 C.ar    
  34 C34            7.4305   -11.7865    -5.8271 C.ar    
  35 O35            8.6333   -12.7933    -9.1098 O.3     
  36 C36            7.4969   -13.5650    -9.5036 C.3     
  37 H37           11.3399    -1.4114     1.9884 H       
  38 H38           10.5155    -1.3653     3.5653 H       
  39 H39           12.0443     1.9536     3.2692 H       
  40 H40           10.0767    -1.2568    -0.0792 H       
  41 H41            7.9176    -1.6472    -1.1967 H       
  42 H42            5.9423    -1.5389     2.5816 H       
  43 H43            8.1025    -1.1569     3.7000 H       
  44 H44            5.0731    -0.9059    -0.4131 H       
  45 H45            5.1563    -2.7932    -4.3813 H       
  46 H46            7.2794    -6.4872    -1.0635 H       
  47 H47            6.8272    -7.0656    -5.2917 H       
  48 H48            5.8451    -4.8425    -5.5129 H       
  49 H49            4.3511    -1.8181     1.7767 H       
  50 H50            3.5402    -2.6608     0.4349 H       
  51 H51            4.8988    -3.4380     1.2825 H       
  52 H52            7.5715    -8.7068    -5.0104 H       
  53 H53            9.4541   -10.2925    -3.6254 H       
  54 H54            7.8350   -10.9818    -3.3577 H       
  55 H55           10.4394   -10.2592    -5.8420 H       
  56 H56           10.5261   -11.3149    -8.0639 H       
  57 H57            6.6387   -12.9702    -7.4208 H       
  58 H58            6.5642   -11.9198    -5.1960 H       
  59 H59            7.3492   -14.3812    -8.7964 H       
  60 H60            6.6118   -12.9290    -9.5145 H       
  61 H61            7.6630   -13.9736   -10.5004 H       
@<TRIPOS>BOND
   1    1    2 1
   2    1    3 2
   3    1    4 1
   4    2    5 1
   5    2   37 1
   6    2   38 1
   7    4   39 1
   8    5    6 ar
   9    5   10 ar
  10    6    7 ar
  11    6   40 1
  12    7    8 ar
  13    7   41 1
  14    8    9 ar
  15    8   11 1
  16    9   10 ar
  17    9   42 1
  18   10   43 1
  19   11   14 1
  20   11   24 1
  21   11   44 1
  22   12   13 am
  23   12   21 1
  24   12   45 1
  25   13   14 am
  26   13   23 2
  27   14   15 am
  28   15   16 1
  29   15   22 2
  30   16   17 ar
  31   16   21 ar
  32   17   18 ar
  33   17   46 1
  34   18   19 ar
  35   18   25 1
  36   19   20 ar
  37   19   47 1
  38   20   21 ar
  39   20   48 1
  40   24   49 1
  41   24   50 1
  42   24   51 1
  43   25   26 am
  44   25   27 2
  45   26   28 1
  46   26   52 1
  47   28   29 1
  48   28   53 1
  49   28   54 1
  50   29   30 ar
  51   29   34 ar
  52   30   31 ar
  53   30   55 1
  54   31   32 ar
  55   31   56 1
  56   32   33 ar
  57   32   35 1
  58   33   34 ar
  59   33   57 1
  60   34   58 1
  61   35   36 1
  62   36   59 1
  63   36   60 1
  64   36   61 1

#	End of record

