#	Name: ASD01940030
#	Creating user name:	WinNT
#	Creation time:	15. 06. 2019 20:11

#	Modifying user name:	WinNT
#	Modification time:	15. 06. 2019 20:11

#	Program:	/corina/corina34_cracker 3.40 0067  02.08.2006

@<TRIPOS>MOLECULE
ASD01940030
  47   49    0    0    0
SMALL
NO_CHARGES


@<TRIPOS>ATOM
   1 C1            -0.1654     1.1879    -0.0603 C.ar    
   2 C2            -0.1626    -0.0643    -0.6613 C.ar    
   3 C3            -1.2729    -0.8793    -0.5631 C.ar    
   4 C4            -2.3913    -0.4475     0.1353 C.ar    
   5 C5            -2.3949     0.8033     0.7359 C.ar    
   6 C6            -1.2831     1.6169     0.6439 C.ar    
   7 N7             0.9594     2.0145    -0.1594 N.pl3   
   8 C8             0.8039     3.3859    -0.2532 C.2     
   9 C9             1.8026     4.3490    -0.2310 C.2     
  10 C10            1.3227     5.6545    -0.3470 C.2     
  11 N11            0.0371     5.7990    -0.4581 N.2     
  12 S12           -0.6678     4.2584    -0.4294 S.3     
  13 O13            2.1608     6.7234    -0.3435 O.3     
  14 C14            3.2321     4.0247    -0.0970 C.2     
  15 N15            3.8066     3.9442     1.1544 N.pl3   
  16 N16            3.9569     3.8131    -1.1637 N.2     
  17 C17            5.2294     3.6215     1.2878 C.3     
  18 C18            6.0575     4.9007     1.1509 C.3     
  19 C19            5.4836     2.9938     2.6597 C.3     
  20 O20            5.2171     3.9570     3.6811 O.3     
  21 O21           -3.4845    -1.2502     0.2308 O.3     
  22 C22           -3.3727    -2.3977     0.9508 C.ar    
  23 C23           -4.4181    -3.3115     0.9696 C.ar    
  24 C24           -4.3002    -4.4801     1.7043 C.ar    
  25 C25           -3.1414    -4.7349     2.4180 C.ar    
  26 C26           -2.2117    -2.6604     1.6635 C.ar    
  27 F27           -5.5483    -3.0612     0.2731 F       
  28 C28           -2.1010    -3.8245     2.3993 C.ar    
  29 F29           -5.3159    -5.3707     1.7247 F       
  30 H30            0.7076    -0.4002    -1.2056 H       
  31 H31           -1.2708    -1.8530    -1.0304 H       
  32 H32           -3.2660     1.1388     1.2791 H       
  33 H33           -1.2860     2.5904     1.1115 H       
  34 H34            1.8481     1.6259    -0.1624 H       
  35 H35            2.4739     6.9806    -1.2216 H       
  36 H36            3.2687     4.1013     1.9461 H       
  37 H37            4.8990     3.5995    -1.0754 H       
  38 H38            5.5170     2.9173     0.5071 H       
  39 H39            5.7700     5.6049     1.9316 H       
  40 H40            7.1161     4.6606     1.2502 H       
  41 H41            5.8765     5.3479     0.1735 H       
  42 H42            4.8283     2.1328     2.7924 H       
  43 H43            6.5231     2.6727     2.7254 H       
  44 H44            5.3576     3.6272     4.5791 H       
  45 H45           -3.0502    -5.6462     2.9905 H       
  46 H46           -1.3959    -1.9529     1.6464 H       
  47 H47           -1.1985    -4.0258     2.9572 H       
@<TRIPOS>BOND
   1    1    2 ar
   2    1    7 1
   3    1    6 ar
   4    2    3 ar
   5    2   30 1
   6    3    4 ar
   7    3   31 1
   8    4    5 ar
   9    4   21 1
  10    5    6 ar
  11    5   32 1
  12    6   33 1
  13    7    8 1
  14    7   34 1
  15    8    9 2
  16    8   12 1
  17    9   10 1
  18    9   14 1
  19   10   11 2
  20   10   13 1
  21   11   12 1
  22   13   35 1
  23   14   15 1
  24   14   16 2
  25   15   17 1
  26   15   36 1
  27   16   37 1
  28   17   18 1
  29   17   19 1
  30   17   38 1
  31   18   39 1
  32   18   40 1
  33   18   41 1
  34   19   20 1
  35   19   42 1
  36   19   43 1
  37   20   44 1
  38   21   22 1
  39   22   23 ar
  40   22   26 ar
  41   23   24 ar
  42   23   27 1
  43   24   25 ar
  44   24   29 1
  45   25   28 ar
  46   25   45 1
  47   26   28 ar
  48   26   46 1
  49   28   47 1

#	End of record

