#	Name: ASD01410812
#	Creating user name:	WinNT
#	Creation time:	15. 06. 2019 19:18

#	Modifying user name:	WinNT
#	Modification time:	15. 06. 2019 19:18

#	Program:	/corina/corina34_cracker 3.40 0067  02.08.2006

@<TRIPOS>MOLECULE
ASD01410812
  37   39    0    0    0
SMALL
NO_CHARGES


@<TRIPOS>ATOM
   1 N1            -0.0157     1.3083     0.0092 N.ar    
   2 C2             0.0021    -0.0041     0.0020 C.ar    
   3 C3             1.1974    -0.7205    -0.0132 C.ar    
   4 C4             2.3916    -0.0550    -0.0210 C.ar    
   5 C5             2.3684     1.3539    -0.0132 C.ar    
   6 C6             3.5566     2.1016    -0.0210 C.ar    
   7 C7             3.5016     3.4610    -0.0136 C.ar    
   8 C8             2.2733     4.1279     0.0020 C.ar    
   9 C9             1.0895     3.4240     0.0104 C.ar    
  10 C10            1.1175     2.0196     0.0022 C.ar    
  11 O11            2.2468     5.4863     0.0095 O.3     
  12 C12            3.5071     6.1598     0.0007 C.3     
  13 C13            3.2771     7.6724     0.0110 C.3     
  14 N14            2.6372     8.0618     1.2746 N.3     
  15 C15            2.6149     9.5241     1.4252 C.3     
  16 C16            1.8884     9.8870     2.7230 C.3     
  17 O17            2.5345     9.2393     3.8223 O.3     
  18 C18            2.5736     7.8142     3.7087 C.3     
  19 C19            3.3071     7.4303     2.4209 C.3     
  20 Cl20          -0.4278     4.2673     0.0299 Cl      
  21 Cl21           3.8954    -0.9220    -0.0395 Cl      
  22 Cl22          -1.5025    -0.8700     0.0123 Cl      
  23 H23            1.1803    -1.8003    -0.0185 H       
  24 H24            4.5123     1.5987    -0.0324 H       
  25 H25            4.4184     4.0319    -0.0196 H       
  26 H26            4.0785     5.8732     0.8835 H       
  27 H27            4.0609     5.8826    -0.8963 H       
  28 H28            4.2337     8.1860    -0.0853 H       
  29 H29            2.6315     7.9474    -0.8231 H       
  30 H30            3.6367     9.9018     1.4622 H       
  31 H31            2.0921     9.9692     0.5787 H       
  32 H32            1.9193    10.9669     2.8676 H       
  33 H33            0.8514     9.5565     2.6643 H       
  34 H34            3.1000     7.3950     4.5662 H       
  35 H35            1.5565     7.4235     3.6786 H       
  36 H36            3.2895     6.3470     2.3011 H       
  37 H37            4.3399     7.7745     2.4738 H       
@<TRIPOS>BOND
   1    1    2 ar
   2    1   10 ar
   3    2    3 ar
   4    2   22 1
   5    3    4 ar
   6    3   23 1
   7    4    5 ar
   8    4   21 1
   9    5    6 ar
  10    5   10 ar
  11    6    7 ar
  12    6   24 1
  13    7    8 ar
  14    7   25 1
  15    8    9 ar
  16    8   11 1
  17    9   10 ar
  18    9   20 1
  19   11   12 1
  20   12   13 1
  21   12   26 1
  22   12   27 1
  23   13   14 1
  24   13   28 1
  25   13   29 1
  26   14   15 1
  27   14   19 1
  28   15   16 1
  29   15   30 1
  30   15   31 1
  31   16   17 1
  32   16   32 1
  33   16   33 1
  34   17   18 1
  35   18   19 1
  36   18   34 1
  37   18   35 1
  38   19   36 1
  39   19   37 1

#	End of record

