#	Name: ASD03331039
#	Creating user name:	WinNT
#	Creation time:	15. 06. 2019 20:38

#	Modifying user name:	WinNT
#	Modification time:	15. 06. 2019 20:38

#	Program:	/corina/corina34_cracker 3.40 0067  02.08.2006

@<TRIPOS>MOLECULE
ASD03331039
  53   55    0    0    0
SMALL
NO_CHARGES


@<TRIPOS>ATOM
   1 C1             0.5941     1.5918     0.4656 C.ar    
   2 C2             0.4609     0.1230     0.3515 C.2     
   3 N3            -0.6292    -0.6044     0.7067 N.pl3   
   4 C4            -0.3499    -1.9155     0.4468 C.2     
   5 C5             0.9040    -1.9643    -0.0641 C.2     
   6 N6             1.3760    -0.6969    -0.1163 N.2     
   7 C7             1.6224    -3.1779    -0.4912 C.2     
   8 N8             2.8730    -3.0823    -0.9844 N.am    
   9 C9            -0.2736     2.3114     1.2877 C.ar    
  10 O10            1.0868    -4.2659    -0.3986 O.2     
  11 C11            3.5872    -4.2889    -1.4090 C.3     
  12 C12            3.2023    -4.6288    -2.8502 C.3     
  13 C13            5.0727    -4.0476    -1.3293 C.2     
  14 C14            3.4720    -3.4201    -3.7487 C.3     
  15 C15           -1.9059    -0.1536     1.2680 C.3     
  16 C16           -2.9257    -1.2884     1.1009 C.3     
  17 O17           -2.3609    -2.5202     1.5578 O.3     
  18 C18           -1.3210    -3.0367     0.7138 C.3     
  19 O19            5.5130    -2.9258    -1.4658 O.2     
  20 N20            5.9118    -5.0784    -1.1065 N.am    
  21 C21            7.3432    -4.8301    -0.9175 C.3     
  22 C22            4.0339    -5.8188    -3.3331 C.3     
  23 C23            1.7161    -4.9873    -2.9102 C.3     
  24 C24           -0.1447     3.6828     1.3905 C.ar    
  25 C25            0.8455     4.3435     0.6772 C.ar    
  26 C26            1.7084     3.6318    -0.1403 C.ar    
  27 C27            1.5917     2.2614    -0.2441 C.ar    
  28 F28            0.9682     5.6850     0.7800 F       
  29 F29           -0.9838     4.3817     2.1859 F       
  30 H30            3.3003    -2.2146    -1.0582 H       
  31 H31           -1.0447     1.7972     1.8422 H       
  32 H32            3.3184    -5.1190    -0.7557 H       
  33 H33            4.5308    -3.1646    -3.7060 H       
  34 H34            3.1978    -3.6622    -4.7755 H       
  35 H35            2.8795    -2.5723    -3.4047 H       
  36 H36           -1.7820     0.0774     2.3260 H       
  37 H37           -2.2502     0.7325     0.7347 H       
  38 H38           -3.8188    -1.0614     1.6832 H       
  39 H39           -3.1948    -1.3815     0.0487 H       
  40 H40           -1.7477    -3.3876    -0.2258 H       
  41 H41           -0.8093    -3.8568     1.2174 H       
  42 H42            5.5680    -5.9848    -1.0712 H       
  43 H43            7.7488    -4.3479    -1.8070 H       
  44 H44            7.4884    -4.1809    -0.0541 H       
  45 H45            7.8573    -5.7766    -0.7510 H       
  46 H46            3.8019    -6.6942    -2.7265 H       
  47 H47            3.7983    -6.0271    -4.3768 H       
  48 H48            5.0940    -5.5829    -3.2400 H       
  49 H49            1.1237    -4.1395    -2.5662 H       
  50 H50            1.4419    -5.2295    -3.9370 H       
  51 H51            1.5240    -5.8484    -2.2701 H       
  52 H52            2.4769     4.1507    -0.6939 H       
  53 H53            2.2653     1.7083    -0.8819 H       
@<TRIPOS>BOND
   1    1    2 1
   2    1    9 ar
   3    1   27 ar
   4    2    3 1
   5    2    6 2
   6    3    4 1
   7    3   15 1
   8    4    5 2
   9    4   18 1
  10    5    6 1
  11    5    7 1
  12    7    8 am
  13    7   10 2
  14    8   11 1
  15    8   30 1
  16    9   24 ar
  17    9   31 1
  18   11   12 1
  19   11   13 1
  20   11   32 1
  21   12   14 1
  22   12   22 1
  23   12   23 1
  24   13   19 2
  25   13   20 am
  26   14   33 1
  27   14   34 1
  28   14   35 1
  29   15   16 1
  30   15   36 1
  31   15   37 1
  32   16   17 1
  33   16   38 1
  34   16   39 1
  35   17   18 1
  36   18   40 1
  37   18   41 1
  38   20   21 1
  39   20   42 1
  40   21   43 1
  41   21   44 1
  42   21   45 1
  43   22   46 1
  44   22   47 1
  45   22   48 1
  46   23   49 1
  47   23   50 1
  48   23   51 1
  49   24   25 ar
  50   24   29 1
  51   25   26 ar
  52   25   28 1
  53   26   27 ar
  54   26   52 1
  55   27   53 1

#	End of record

