#	Name: ASD02500816
#	Creating user name:	WinNT
#	Creation time:	15. 06. 2019 20:23

#	Modifying user name:	WinNT
#	Modification time:	15. 06. 2019 20:23

#	Program:	/corina/corina34_cracker 3.40 0067  02.08.2006

@<TRIPOS>MOLECULE
ASD02500816
  35   38    0    0    0
SMALL
NO_CHARGES


@<TRIPOS>ATOM
   1 C1            -0.0169     1.3929     0.0097 C.2     
   2 C2             0.0021    -0.0041     0.0020 C.2     
   3 C3            -1.2317    -0.6950     0.0105 C.2     
   4 N4            -2.3812     0.0093     0.0256 N.am    
   5 N5            -2.3711     1.4070     0.0326 N.2     
   6 C6            -1.2534     2.0773     0.0303 C.2     
   7 C7             1.3816     1.8298    -0.0013 C.2     
   8 C8             2.1628     0.6916    -0.0149 C.2     
   9 N9             1.3106    -0.4157    -0.0127 N.pl3   
  10 S10            2.4018     3.2631    -0.0034 S.3     
  11 C11            3.8565     2.2799    -0.0225 C.2     
  12 C12            3.5287     0.9637    -0.0258 C.2     
  13 O13           -1.2557    -1.9152     0.0038 O.2     
  14 C14           -3.6619    -0.7020     0.0345 C.3     
  15 C15           -4.0870    -0.9535     1.4582 C.ar    
  16 C16           -4.6832     0.0579     2.1919 C.ar    
  17 C17           -5.0733    -0.1747     3.5001 C.ar    
  18 C18           -4.8671    -1.4157     4.0717 C.ar    
  19 C19           -4.2716    -2.4250     3.3380 C.ar    
  20 C20           -3.8870    -2.1958     2.0303 C.ar    
  21 F21           -4.8839     1.2709     1.6321 F       
  22 C22            5.1936     2.7926    -0.0324 C.1     
  23 N23            6.2542     3.1993    -0.0403 N.1     
  24 C24            1.7505    -1.8131    -0.0244 C.3     
  25 H25           -1.2721     3.1571     0.0362 H       
  26 H26            4.2739     0.1822    -0.0372 H       
  27 H27           -4.4167    -0.0976    -0.4687 H       
  28 H28           -3.5526    -1.6537    -0.4856 H       
  29 H29           -5.5381     0.6137     4.0735 H       
  30 H30           -5.1709    -1.5972     5.0921 H       
  31 H31           -4.1105    -3.3946     3.7858 H       
  32 H32           -3.4219    -2.9849     1.4582 H       
  33 H33            1.8699    -2.1650     1.0003 H       
  34 H34            1.0056    -2.4242    -0.5341 H       
  35 H35            2.7034    -1.8896    -0.5482 H       
@<TRIPOS>BOND
   1    1    2 2
   2    1    7 1
   3    1    6 1
   4    2    3 1
   5    2    9 1
   6    3    4 am
   7    3   13 2
   8    4    5 1
   9    4   14 1
  10    5    6 2
  11    6   25 1
  12    7    8 2
  13    7   10 1
  14    8    9 1
  15    8   12 1
  16    9   24 1
  17   10   11 1
  18   11   12 2
  19   11   22 1
  20   12   26 1
  21   14   15 1
  22   14   27 1
  23   14   28 1
  24   15   16 ar
  25   15   20 ar
  26   16   17 ar
  27   16   21 1
  28   17   18 ar
  29   17   29 1
  30   18   19 ar
  31   18   30 1
  32   19   20 ar
  33   19   31 1
  34   20   32 1
  35   22   23 3
  36   24   33 1
  37   24   34 1
  38   24   35 1

#	End of record

