#	Name: ASD01200390
#	Creating user name:	WinNT
#	Creation time:	15. 06. 2019 19:09

#	Modifying user name:	WinNT
#	Modification time:	15. 06. 2019 19:09

#	Program:	/corina/corina34_cracker 3.40 0067  02.08.2006

@<TRIPOS>MOLECULE
ASD01200390
  57   59    0    0    0
SMALL
NO_CHARGES


@<TRIPOS>ATOM
   1 C1            -0.1623     1.4802     0.0987 C.2     
   2 C2            -0.1031     0.0046     0.0633 C.ar    
   3 C3             1.1307    -0.6466     0.0051 C.ar    
   4 C4             1.1788    -2.0248    -0.0272 C.ar    
   5 C5             0.0080    -2.7618    -0.0025 C.ar    
   6 C6            -1.2181    -2.1230     0.0548 C.ar    
   7 C7            -1.2804    -0.7455     0.0938 C.ar    
   8 O8             0.8638     2.1299     0.0771 O.2     
   9 O9            -1.3544     2.1054     0.1493 O.3     
  10 C10            0.0684    -4.2672    -0.0386 C.3     
  11 C11           -0.1111    -4.8188     1.3772 C.3     
  12 C12            0.0741    -6.3375     1.3600 C.3     
  13 C13           -0.1054    -6.8892     2.7758 C.3     
  14 O14           -0.9737    -4.7657    -0.8798 O.3     
  15 C15           -0.7107    -5.8995    -1.5820 C.ar    
  16 C16           -1.7032    -6.4803    -2.3586 C.ar    
  17 C17           -1.4366    -7.6318    -3.0719 C.ar    
  18 C18           -0.1749    -8.2085    -3.0126 C.ar    
  19 C19            0.8178    -7.6269    -2.2359 C.ar    
  20 C20            0.5515    -6.4724    -1.5266 C.ar    
  21 N21            0.0964    -9.3789    -3.7369 N.pl3   
  22 N22           -0.8060   -10.0690    -4.5567 N.2     
  23 C23           -0.1892   -11.1078    -5.0605 C.2     
  24 C24            1.1242   -11.1132    -4.5789 C.2     
  25 C25            1.2766   -10.0373    -3.7721 C.2     
  26 C26            2.1841   -12.1334    -4.9060 C.3     
  27 F27            1.6557   -13.0919    -5.7773 F       
  28 F28            3.2710   -11.4976    -5.5156 F       
  29 F29            2.6096   -12.7577    -3.7285 F       
  30 C30           -3.0725    -5.8543    -2.4229 C.3     
  31 C31           -1.3367     3.5570     0.1818 C.3     
  32 C32           -2.7722     4.0834     0.2376 C.3     
  33 H33            2.0453    -0.0725    -0.0150 H       
  34 H34            2.1324    -2.5297    -0.0723 H       
  35 H35           -2.1281    -2.7042     0.0731 H       
  36 H36           -2.2378    -0.2482     0.1434 H       
  37 H37            1.0349    -4.5827    -0.4316 H       
  38 H38            0.6297    -4.3699     2.0387 H       
  39 H39           -1.1119    -4.5789     1.7364 H       
  40 H40           -0.6667    -6.7865     0.6985 H       
  41 H41            1.0749    -6.5774     1.0008 H       
  42 H42            0.0266    -7.9711     2.7636 H       
  43 H43            0.6354    -6.4402     3.4373 H       
  44 H44           -1.1062    -6.6493     3.1350 H       
  45 H45           -2.2094    -8.0841    -3.6757 H       
  46 H46            1.7992    -8.0753    -2.1892 H       
  47 H47            1.3250    -6.0175    -0.9256 H       
  48 H48           -0.6202   -11.8355    -5.7322 H       
  49 H49            2.1784    -9.7567    -3.2481 H       
  50 H50           -3.1056    -5.1362    -3.2422 H       
  51 H51           -3.8194    -6.6305    -2.5896 H       
  52 H52           -3.2829    -5.3434    -1.4833 H       
  53 H53           -0.7915     3.8940     1.0635 H       
  54 H54           -0.8458     3.9345    -0.7152 H       
  55 H55           -2.7588     5.1731     0.2620 H       
  56 H56           -3.3173     3.7464    -0.6441 H       
  57 H57           -3.2630     3.7059     1.1346 H       
@<TRIPOS>BOND
   1    1    2 1
   2    1    8 2
   3    1    9 1
   4    2    3 ar
   5    2    7 ar
   6    3    4 ar
   7    3   33 1
   8    4    5 ar
   9    4   34 1
  10    5    6 ar
  11    5   10 1
  12    6    7 ar
  13    6   35 1
  14    7   36 1
  15    9   31 1
  16   10   11 1
  17   10   14 1
  18   10   37 1
  19   11   12 1
  20   11   38 1
  21   11   39 1
  22   12   13 1
  23   12   40 1
  24   12   41 1
  25   13   42 1
  26   13   43 1
  27   13   44 1
  28   14   15 1
  29   15   16 ar
  30   15   20 ar
  31   16   17 ar
  32   16   30 1
  33   17   18 ar
  34   17   45 1
  35   18   19 ar
  36   18   21 1
  37   19   20 ar
  38   19   46 1
  39   20   47 1
  40   21   22 1
  41   21   25 1
  42   22   23 2
  43   23   24 1
  44   23   48 1
  45   24   25 2
  46   24   26 1
  47   25   49 1
  48   26   27 1
  49   26   28 1
  50   26   29 1
  51   30   50 1
  52   30   51 1
  53   30   52 1
  54   31   32 1
  55   31   53 1
  56   31   54 1
  57   32   55 1
  58   32   56 1
  59   32   57 1

#	End of record

