#	Name: ASD01885383
#	Creating user name:	WinNT
#	Creation time:	15. 06. 2019 19:49

#	Modifying user name:	WinNT
#	Modification time:	15. 06. 2019 19:49

#	Program:	/corina/corina34_cracker 3.40 0067  02.08.2006

@<TRIPOS>MOLECULE
ASD01885383
  28   30    0    0    0
SMALL
NO_CHARGES


@<TRIPOS>ATOM
   1 C1            -0.0168     1.3902     0.0097 C.ar    
   2 C2             0.0021    -0.0041     0.0020 C.ar    
   3 N3            -1.1145    -0.7760     0.0185 N.2     
   4 C4            -2.1892    -0.5674    -0.6488 C.2     
   5 C5            -2.3479     0.6310    -1.5465 C.3     
   6 C6            -2.2770     1.8709    -0.6912 C.2     
   7 N7            -1.1813     2.1455     0.0184 N.am    
   8 C8             1.1912     2.0897     0.0019 C.ar    
   9 C9             2.3949     1.4182    -0.0174 C.ar    
  10 C10            2.4174     0.0329    -0.0298 C.ar    
  11 C11            1.2380    -0.6741    -0.0203 C.ar    
  12 I12            4.1928     2.4937    -0.0287 I       
  13 C13           -3.3009    -1.5284    -0.5343 C.ar    
  14 C14           -3.2006    -2.6609     0.2892 C.ar    
  15 C15           -4.2868    -3.5163     0.3446 C.ar    
  16 N16           -5.3698    -3.2544    -0.3626 N.ar    
  17 N17           -5.4695    -2.2221    -1.1173 N.ar    
  18 C18           -4.4973    -1.3408    -1.2389 C.ar    
  19 O19           -3.2252     2.6259    -0.6482 O.2     
  20 H20           -1.5458     0.6467    -2.2844 H       
  21 H21           -3.3127     0.5872    -2.0517 H       
  22 H22           -1.1997     2.9335     0.5837 H       
  23 H23            1.1826     3.1697     0.0108 H       
  24 H24            3.3612    -0.4917    -0.0471 H       
  25 H25            1.2613    -1.7538    -0.0302 H       
  26 H26           -2.3054    -2.8581     0.8602 H       
  27 H27           -4.2481    -4.3985     0.9664 H       
  28 H28           -4.6188    -0.4834    -1.8844 H       
@<TRIPOS>BOND
   1    1    2 ar
   2    1    8 ar
   3    1    7 1
   4    2    3 1
   5    2   11 ar
   6    3    4 2
   7    4    5 1
   8    4   13 1
   9    5    6 1
  10    5   20 1
  11    5   21 1
  12    6    7 am
  13    6   19 2
  14    7   22 1
  15    8    9 ar
  16    8   23 1
  17    9   10 ar
  18    9   12 1
  19   10   11 ar
  20   10   24 1
  21   11   25 1
  22   13   14 ar
  23   13   18 ar
  24   14   15 ar
  25   14   26 1
  26   15   16 ar
  27   15   27 1
  28   16   17 ar
  29   17   18 ar
  30   18   28 1

#	End of record

