#	Name: ASD01917062
#	Creating user name:	WinNT
#	Creation time:	15. 06. 2019 20:08

#	Modifying user name:	WinNT
#	Modification time:	15. 06. 2019 20:08

#	Program:	/corina/corina34_cracker 3.40 0067  02.08.2006

@<TRIPOS>MOLECULE
ASD01917062
  45   46    0    0    0
SMALL
NO_CHARGES


@<TRIPOS>ATOM
   1 C1            -0.0184     1.5028     0.0103 C.3     
   2 C2             0.0021    -0.0041     0.0020 C.2     
   3 N3             0.0221    -0.7751     1.0570 N.2     
   4 C4             0.0362    -2.0604     0.6790 C.2     
   5 N5             0.0250    -2.1135    -0.6349 N.2     
   6 N6            -0.0030    -0.7860    -1.0925 N.pl3   
   7 C7            -0.0243    -0.3403    -2.4879 C.3     
   8 C8            -1.4522    -0.2134    -2.9529 C.2     
   9 O9            -1.7166     0.1836    -4.2076 O.3     
  10 O10           -2.3589    -0.4691    -2.1964 O.2     
  11 C11           -3.1147     0.2834    -4.5866 C.3     
  12 C12            0.0611    -3.2302     1.5917 C.ar    
  13 C13            0.0718    -3.0394     2.9717 C.ar    
  14 C14            0.0681    -4.5228     1.0709 C.ar    
  15 C15            0.0908    -5.6075     1.9230 C.ar    
  16 C16            0.0945    -4.1301     3.8169 C.ar    
  17 C17            0.1067    -5.4132     3.2949 C.ar    
  18 F18            0.1289    -6.4782     4.1259 F       
  19 C19            0.0979    -7.0058     1.3611 C.3     
  20 C20            1.4170     2.0324    -0.0006 C.3     
  21 C21            1.3963     3.5622     0.0079 C.3     
  22 C22            2.8317     4.0918    -0.0030 C.3     
  23 C23            2.8109     5.6216     0.0054 C.3     
  24 H24           -0.5455     1.8639    -0.8728 H       
  25 H25           -0.5286     1.8543     0.9071 H       
  26 H26            0.4712     0.6273    -2.5678 H       
  27 H27            0.4970    -1.0680    -3.1097 H       
  28 H28           -3.6159     1.0035    -3.9397 H       
  29 H29           -3.1876     0.6136    -5.6228 H       
  30 H30           -3.5901    -0.6918    -4.4816 H       
  31 H31            0.0627    -2.0394     3.3795 H       
  32 H32            0.0554    -4.6752     0.0018 H       
  33 H33            0.1031    -3.9831     4.8868 H       
  34 H34            1.1271    -7.3322     1.2118 H       
  35 H35           -0.3996    -7.6801     2.0581 H       
  36 H36           -0.4286    -7.0165     0.4067 H       
  37 H37            1.9442     1.6713     0.8825 H       
  38 H38            1.9272     1.6808    -0.8974 H       
  39 H39            0.8691     3.9233    -0.8752 H       
  40 H40            0.8861     3.9137     0.9047 H       
  41 H41            3.3588     3.7307     0.8801 H       
  42 H42            3.3418     3.7402    -0.8998 H       
  43 H43            3.8335     5.9989    -0.0023 H       
  44 H44            2.2837     5.9827    -0.8777 H       
  45 H45            2.3007     5.9731     0.9022 H       
@<TRIPOS>BOND
   1    1    2 1
   2    1   20 1
   3    1   24 1
   4    1   25 1
   5    2    3 2
   6    2    6 1
   7    3    4 1
   8    4    5 2
   9    4   12 1
  10    5    6 1
  11    6    7 1
  12    7    8 1
  13    7   26 1
  14    7   27 1
  15    8    9 1
  16    8   10 2
  17    9   11 1
  18   11   28 1
  19   11   29 1
  20   11   30 1
  21   12   13 ar
  22   12   14 ar
  23   13   16 ar
  24   13   31 1
  25   14   15 ar
  26   14   32 1
  27   15   17 ar
  28   15   19 1
  29   16   17 ar
  30   16   33 1
  31   17   18 1
  32   19   34 1
  33   19   35 1
  34   19   36 1
  35   20   21 1
  36   20   37 1
  37   20   38 1
  38   21   22 1
  39   21   39 1
  40   21   40 1
  41   22   23 1
  42   22   41 1
  43   22   42 1
  44   23   43 1
  45   23   44 1
  46   23   45 1

#	End of record

