#	Name: ASD01001183
#	Creating user name:	WinNT
#	Creation time:	15. 06. 2019 18:55

#	Modifying user name:	WinNT
#	Modification time:	15. 06. 2019 18:55

#	Program:	/corina/corina34_cracker 3.40 0067  02.08.2006

@<TRIPOS>MOLECULE
ASD01001183
  51   54    0    0    0
SMALL
NO_CHARGES


@<TRIPOS>ATOM
   1 C1            -0.0167     1.3782     0.0096 C.ar    
   2 C2             1.2784     2.1488     0.0014 C.3     
   3 C3             1.5832     2.6369    -1.4177 C.3     
   4 N4             1.1593     3.3331     0.8644 N.pl3   
   5 C5             1.5951     1.4599    -2.3892 C.3     
   6 C6             2.9325     3.3511    -1.4237 C.3     
   7 C7             2.0938     4.3660     0.7308 C.ar    
   8 C8             2.7671     0.5318    -2.0566 C.3     
   9 C9             2.9578     4.4127    -0.3522 C.ar    
  10 O10            3.9814     2.4149    -1.1641 O.3     
  11 C11            2.1484     5.3573     1.7049 C.ar    
  12 C12            4.0661     1.3424    -2.1029 C.3     
  13 C13            3.8672     5.4503    -0.4598 C.ar    
  14 C14            3.0594     6.3884     1.5914 C.ar    
  15 C15            3.9180     6.4349     0.5086 C.ar    
  16 C16            4.9112     7.5615     0.3842 C.3     
  17 C17            4.6504     8.3303    -0.9127 C.3     
  18 C18            4.7610     8.5077     1.5770 C.3     
  19 C19            6.3303     6.9902     0.3618 C.3     
  20 C20            0.0021    -0.0041     0.0020 C.ar    
  21 C21           -1.1849    -0.7118     0.0100 C.ar    
  22 C22           -2.3932    -0.0359     0.0256 C.ar    
  23 C23           -2.4107     1.3486     0.0332 C.ar    
  24 C24           -1.2224     2.0541     0.0305 C.ar    
  25 F25           -3.5542    -0.7267     0.0330 F       
  26 H26            2.0893     1.5123     0.3555 H       
  27 H27            0.8160     3.3478    -1.7248 H       
  28 H28            0.4437     3.3976     1.5161 H       
  29 H29            0.6591     0.9081    -2.3024 H       
  30 H30            1.7040     1.8313    -3.4082 H       
  31 H31            3.0937     3.8142    -2.3972 H       
  32 H32            2.6316     0.1154    -1.0584 H       
  33 H33            2.8135    -0.2749    -2.7882 H       
  34 H34            1.4774     5.3206     2.5503 H       
  35 H35            4.9069     0.6983    -1.8455 H       
  36 H36            4.2083     1.7460    -3.1054 H       
  37 H37            4.5401     5.4905    -1.3036 H       
  38 H38            3.1012     7.1583     2.3476 H       
  39 H39            3.6394     8.7373    -0.8968 H       
  40 H40            5.3688     9.1452    -1.0027 H       
  41 H41            4.7574     7.6562    -1.7625 H       
  42 H42            4.9468     7.9600     2.5009 H       
  43 H43            5.4794     9.3226     1.4871 H       
  44 H44            3.7500     8.9147     1.5930 H       
  45 H45            6.4373     6.3160    -0.4880 H       
  46 H46            7.0487     7.8050     0.2718 H       
  47 H47            6.5161     6.4424     1.2857 H       
  48 H48            0.9447    -0.5311    -0.0105 H       
  49 H49           -1.1700    -1.7917     0.0037 H       
  50 H50           -3.3526     1.8768     0.0454 H       
  51 H51           -1.2359     3.1340     0.0365 H       
@<TRIPOS>BOND
   1    1   20 ar
   2    1    2 1
   3    1   24 ar
   4    2    3 1
   5    2    4 1
   6    2   26 1
   7    3    5 1
   8    3    6 1
   9    3   27 1
  10    4    7 1
  11    4   28 1
  12    5    8 1
  13    5   29 1
  14    5   30 1
  15    6    9 1
  16    6   10 1
  17    6   31 1
  18    7    9 ar
  19    7   11 ar
  20    8   12 1
  21    8   32 1
  22    8   33 1
  23    9   13 ar
  24   10   12 1
  25   11   14 ar
  26   11   34 1
  27   12   35 1
  28   12   36 1
  29   13   15 ar
  30   13   37 1
  31   14   15 ar
  32   14   38 1
  33   15   16 1
  34   16   17 1
  35   16   18 1
  36   16   19 1
  37   17   39 1
  38   17   40 1
  39   17   41 1
  40   18   42 1
  41   18   43 1
  42   18   44 1
  43   19   45 1
  44   19   46 1
  45   19   47 1
  46   20   21 ar
  47   20   48 1
  48   21   22 ar
  49   21   49 1
  50   22   23 ar
  51   22   25 1
  52   23   24 ar
  53   23   50 1
  54   24   51 1

#	End of record

