#	Name: ASD09116512
#	Creating user name:	WinNT
#	Creation time:	15. 06. 2019 21:21

#	Modifying user name:	WinNT
#	Modification time:	15. 06. 2019 21:21

#	Program:	/corina/corina34_cracker 3.40 0067  02.08.2006

@<TRIPOS>MOLECULE
ASD09116512
  54   59    0    0    0
SMALL
NO_CHARGES


@<TRIPOS>ATOM
   1 N1            -0.5681     3.8797     0.5342 N.2     
   2 N2            -1.1205     5.0463     1.0873 N.pl3   
   3 C3             0.7304     4.0554     0.4870 C.2     
   4 N4             1.0280     5.2642     0.9778 N.2     
   5 C5            -0.0761     5.8780     1.3457 C.2     
   6 N6            -0.1596     7.1426     1.8957 N.pl3   
   7 C7            -2.4694     5.3012     1.3234 C.ar    
   8 N8             1.6544     3.1296     0.0027 N.pl3   
   9 C9             3.0040     3.4779    -0.1009 C.ar    
  10 C10            3.9929     2.5064    -0.0073 C.ar    
  11 C11            3.3794     4.8049    -0.3053 C.ar    
  12 C12            4.7316     5.0894    -0.3995 C.ar    
  13 C13            5.6520     4.0795    -0.2894 C.ar    
  14 N14            5.2674     2.8283    -0.1026 N.ar    
  15 N15           -2.8547     6.4541     1.8544 N.ar    
  16 C16           -4.1338     6.7011     2.0806 C.ar    
  17 N17           -5.0787     5.8377     1.7995 N.ar    
  18 C18           -4.7863     4.6347     1.2558 C.ar    
  19 C19           -3.4431     4.3450     0.9983 C.ar    
  20 C20           -5.6421     3.5850     0.8867 C.2     
  21 C21           -5.0541     2.5162     0.3730 C.2     
  22 S22           -3.3140     2.7380     0.2986 S.3     
  23 C23           -7.1362     3.6694     1.0645 C.3     
  24 Cl24          -4.5785     8.2276     2.7775 Cl      
  25 C25            5.1846     6.5145    -0.6276 C.3     
  26 C26            5.8355     7.0318     0.6592 C.3     
  27 C27            7.3003     6.6412     0.7210 C.3     
  28 C28            7.5465     5.1539     0.8778 C.3     
  29 C29            7.1322     4.3923    -0.3830 C.3     
  30 O30            5.7111     8.4615     0.7043 O.3     
  31 C31            4.9490     8.7903     1.8827 C.3     
  32 C32            5.1243     7.5360     2.7746 C.3     
  33 O33            5.1389     6.4756     1.7894 O.3     
  34 H34            0.6465     7.6619     2.0422 H       
  35 H35           -1.0242     7.5111     2.1353 H       
  36 H36            1.3603     2.2441    -0.2623 H       
  37 H37            3.7137     1.4744     0.1457 H       
  38 H38            2.6388     5.5866    -0.3881 H       
  39 H39           -5.5742     1.6294     0.0421 H       
  40 H40           -7.5856     4.0933     0.1665 H       
  41 H41           -7.5388     2.6711     1.2357 H       
  42 H42           -7.3649     4.3050     1.9200 H       
  43 H43            5.9094     6.5424    -1.4412 H       
  44 H44            4.3250     7.1361    -0.8783 H       
  45 H45            7.7868     6.9775    -0.1946 H       
  46 H46            7.7607     7.1584     1.5628 H       
  47 H47            8.6067     4.9846     1.0658 H       
  48 H48            6.9700     4.7832     1.7253 H       
  49 H49            7.6991     3.4641    -0.4532 H       
  50 H50            7.3216     5.0084    -1.2620 H       
  51 H51            5.3600     9.6725     2.3735 H       
  52 H52            3.8989     8.9414     1.6326 H       
  53 H53            6.0667     7.5742     3.3210 H       
  54 H54            4.2829     7.4223     3.4581 H       
@<TRIPOS>BOND
   1    1    2 1
   2    1    3 2
   3    2    7 1
   4    2    5 1
   5    3    4 1
   6    3    8 1
   7    4    5 2
   8    5    6 1
   9    6   34 1
  10    6   35 1
  11    7   15 ar
  12    7   19 ar
  13    8    9 1
  14    8   36 1
  15    9   10 ar
  16    9   11 ar
  17   10   14 ar
  18   10   37 1
  19   11   12 ar
  20   11   38 1
  21   12   13 ar
  22   12   25 1
  23   13   14 ar
  24   13   29 1
  25   15   16 ar
  26   16   17 ar
  27   16   24 1
  28   17   18 ar
  29   18   19 ar
  30   18   20 1
  31   19   22 1
  32   20   21 2
  33   20   23 1
  34   21   22 1
  35   21   39 1
  36   23   40 1
  37   23   41 1
  38   23   42 1
  39   25   26 1
  40   25   43 1
  41   25   44 1
  42   26   27 1
  43   26   30 1
  44   26   33 1
  45   27   28 1
  46   27   45 1
  47   27   46 1
  48   28   29 1
  49   28   47 1
  50   28   48 1
  51   29   49 1
  52   29   50 1
  53   30   31 1
  54   31   32 1
  55   31   51 1
  56   31   52 1
  57   32   33 1
  58   32   53 1
  59   32   54 1

#	End of record

