#	Name: ASD02030359
#	Creating user name:	WinNT
#	Creation time:	15. 06. 2019 20:15

#	Modifying user name:	WinNT
#	Modification time:	15. 06. 2019 20:15

#	Program:	/corina/corina34_cracker 3.40 0067  02.08.2006

@<TRIPOS>MOLECULE
ASD02030359
  37   39    0    0    0
SMALL
NO_CHARGES


@<TRIPOS>ATOM
   1 N1            -0.0158     1.4642    -0.0359 N.am    
   2 C2             0.0086    -0.0039    -0.1217 C.3     
   3 C3            -0.8965    -0.4389    -1.2792 C.3     
   4 N4            -2.2302     0.1508    -1.1020 N.3     
   5 C5            -2.1756     1.6178    -1.1562 C.3     
   6 C6            -1.3229     2.1368     0.0126 C.3     
   7 C7             1.1293     2.1740     0.0030 C.2     
   8 O8             1.0934     3.3883    -0.0405 O.2     
   9 C9             2.4289     1.4758     0.0984 C.2     
  10 N10            3.6162     2.0355     0.0099 N.2     
  11 N11            2.6059     0.1567     0.2969 N.2     
  12 C12            3.8957    -0.0636     0.3200 C.2     
  13 N13            4.5148     1.1211     0.1392 N.pl3   
  14 C14            5.9010     1.3232     0.0988 C.ar    
  15 C15            6.4120     2.5990    -0.0947 C.ar    
  16 C16            7.7811     2.7951    -0.1341 C.ar    
  17 C17            8.6397     1.7194     0.0190 C.ar    
  18 C18            8.1313     0.4481     0.2118 C.ar    
  19 C19            6.7656     0.2481     0.2581 C.ar    
  20 F20            8.2804     4.0363    -0.3224 F       
  21 C21           -3.5918     2.1859    -1.0442 C.3     
  22 H22            1.0279    -0.3430    -0.3066 H       
  23 H23           -0.3589    -0.4314     0.8112 H       
  24 H24           -0.4701    -0.0975    -2.2225 H       
  25 H25           -0.9777    -1.5259    -1.2886 H       
  26 H26           -2.8795    -0.2123    -1.7836 H       
  27 H27           -1.7314     1.9306    -2.1011 H       
  28 H28           -1.8210     1.9144     0.9563 H       
  29 H29           -1.1829     3.2132    -0.0861 H       
  30 H30            4.3771    -1.0199     0.4616 H       
  31 H31            5.7420     3.4375    -0.2148 H       
  32 H32            9.7082     1.8736    -0.0127 H       
  33 H33            8.8032    -0.3890     0.3309 H       
  34 H34            6.3700    -0.7454     0.4092 H       
  35 H35           -4.0348     1.8736    -0.0985 H       
  36 H36           -3.5509     3.2744    -1.0844 H       
  37 H37           -4.1986     1.8143    -1.8699 H       
@<TRIPOS>BOND
   1    1    2 1
   2    1    7 am
   3    1    6 1
   4    2    3 1
   5    2   22 1
   6    2   23 1
   7    3    4 1
   8    3   24 1
   9    3   25 1
  10    4    5 1
  11    4   26 1
  12    5    6 1
  13    5   21 1
  14    5   27 1
  15    6   28 1
  16    6   29 1
  17    7    8 2
  18    7    9 1
  19    9   10 2
  20    9   11 1
  21   10   13 1
  22   11   12 2
  23   12   13 1
  24   12   30 1
  25   13   14 1
  26   14   15 ar
  27   14   19 ar
  28   15   16 ar
  29   15   31 1
  30   16   17 ar
  31   16   20 1
  32   17   18 ar
  33   17   32 1
  34   18   19 ar
  35   18   33 1
  36   19   34 1
  37   21   35 1
  38   21   36 1
  39   21   37 1

#	End of record

