#	Name: ASD01900916
#	Creating user name:	WinNT
#	Creation time:	15. 06. 2019 19:52

#	Modifying user name:	WinNT
#	Modification time:	15. 06. 2019 19:52

#	Program:	/corina/corina34_cracker 3.40 0067  02.08.2006

@<TRIPOS>MOLECULE
ASD01900916
  43   45    0    0    0
SMALL
NO_CHARGES


@<TRIPOS>ATOM
   1 C1             0.2020     1.6497     0.2243 C.ar    
   2 C2             0.3348     0.2734     0.0520 C.ar    
   3 C3             1.5910    -0.3009     0.1640 C.ar    
   4 C4             2.6714     0.5214     0.4446 C.ar    
   5 C5             2.4659     1.8824     0.6036 C.ar    
   6 N6             1.2626     2.4015     0.4921 N.ar    
   7 C7            -1.1328     2.2798     0.1017 C.2     
   8 O8            -2.1064     1.5968    -0.1482 O.2     
   9 N9            -1.2676     3.6105     0.2673 N.am    
  10 S10           -2.8343     5.8715     0.3371 S.3     
  11 C11           -2.5191     4.2013     0.1523 C.2     
  12 N12           -3.6185     3.5667    -0.1115 N.2     
  13 C13           -4.7215     4.2877    -0.1853 C.2     
  14 C14           -4.5460     5.5936     0.0262 C.2     
  15 C15           -6.0699     3.6850    -0.4847 C.3     
  16 C16           -6.6907     3.1558     0.8097 C.3     
  17 S17           -5.8061     6.8249    -0.0009 S.o2    
  18 O18           -6.9630     6.1528     0.4778 O.2     
  19 O19           -5.2446     7.9168     0.7145 O.2     
  20 C20           -5.9932     7.2427    -1.7562 C.3     
  21 C21           -7.0565     8.2993    -1.9105 C.ar    
  22 C22           -6.7127     9.6385    -1.8667 C.ar    
  23 C23           -7.6895    10.6082    -2.0084 C.ar    
  24 C24           -9.0085    10.2390    -2.1937 C.ar    
  25 C25           -9.3527     8.9010    -2.2370 C.ar    
  26 C26           -8.3760     7.9304    -2.1016 C.ar    
  27 Cl27          -8.8073     6.2500    -2.1637 Cl      
  28 Cl28          -5.0562    10.1024    -1.6335 Cl      
  29 H29           -0.5291    -0.3372    -0.1654 H       
  30 H30            1.7253    -1.3648     0.0360 H       
  31 H31            3.6635     0.1051     0.5386 H       
  32 H32            3.3054     2.5258     0.8223 H       
  33 H33           -0.4904     4.1556     0.4668 H       
  34 H34           -6.7206     4.4462    -0.9150 H       
  35 H35           -5.9522     2.8649    -1.1930 H       
  36 H36           -7.6660     2.7199     0.5932 H       
  37 H37           -6.0400     2.3946     1.2401 H       
  38 H38           -6.8084     3.9759     1.5181 H       
  39 H39           -5.0466     7.6206    -2.1426 H       
  40 H40           -6.2830     6.3515    -2.3129 H       
  41 H41           -7.4212    11.6538    -1.9740 H       
  42 H42           -9.7706    10.9962    -2.3042 H       
  43 H43          -10.3836     8.6131    -2.3811 H       
@<TRIPOS>BOND
   1    1    2 ar
   2    1    6 ar
   3    1    7 1
   4    2    3 ar
   5    2   29 1
   6    3    4 ar
   7    3   30 1
   8    4    5 ar
   9    4   31 1
  10    5    6 ar
  11    5   32 1
  12    7    8 2
  13    7    9 am
  14    9   11 1
  15    9   33 1
  16   10   11 1
  17   10   14 1
  18   11   12 2
  19   12   13 1
  20   13   14 2
  21   13   15 1
  22   14   17 1
  23   15   16 1
  24   15   34 1
  25   15   35 1
  26   16   36 1
  27   16   37 1
  28   16   38 1
  29   17   18 2
  30   17   19 2
  31   17   20 1
  32   20   21 1
  33   20   39 1
  34   20   40 1
  35   21   22 ar
  36   21   26 ar
  37   22   23 ar
  38   22   28 1
  39   23   24 ar
  40   23   41 1
  41   24   25 ar
  42   24   42 1
  43   25   26 ar
  44   25   43 1
  45   26   27 1

#	End of record

