#	Name: ASD03332079
#	Creating user name:	WinNT
#	Creation time:	15. 06. 2019 20:40

#	Modifying user name:	WinNT
#	Modification time:	15. 06. 2019 20:40

#	Program:	/corina/corina34_cracker 3.40 0067  02.08.2006

@<TRIPOS>MOLECULE
ASD03332079
  73   76    0    0    0
SMALL
NO_CHARGES


@<TRIPOS>ATOM
   1 C1            -0.0024     1.3617    -0.1147 C.2     
   2 N2             0.0116     0.0103    -0.2026 N.pl3   
   3 C3             1.3179    -0.3819    -0.0661 C.2     
   4 N4             2.0597     0.6784     0.1416 N.2     
   5 C5             1.2713     1.7747     0.1245 C.2     
   6 C6             1.7114     3.1664     0.3277 C.2     
   7 O7             0.9009     4.0723     0.2884 O.2     
   8 N8             3.0119     3.4352     0.5573 N.am    
   9 C9             3.4494     4.8187     0.7593 C.3     
  10 C10            3.7045     5.4764    -0.5984 C.3     
  11 C11            4.7925     4.7012    -1.3442 C.3     
  12 C12            4.7198     4.8306     1.5698 C.2     
  13 C13            2.4146     5.4643    -1.4213 C.3     
  14 C14            4.1613     6.9213    -0.3874 C.3     
  15 N15            4.9916     5.6158     2.5843 N.2     
  16 C16           -1.1249    -0.9031    -0.3688 C.3     
  17 C17           -2.2590    -0.2237    -1.1365 C.3     
  18 C18           -3.1354     0.5852    -0.1677 C.3     
  19 N19           -2.3264     1.6160     0.4634 N.am    
  20 C20           -1.2251     2.2206    -0.2963 C.3     
  21 C21            1.8102    -1.7751    -0.1411 C.ar    
  22 C22           -2.5841     2.0106     1.7261 C.2     
  23 C23            3.0948    -2.0394    -0.6168 C.ar    
  24 C24            3.5480    -3.3409    -0.6843 C.ar    
  25 C25            2.7314    -4.3826    -0.2819 C.ar    
  26 C26            1.4564    -4.1271     0.1904 C.ar    
  27 C27            0.9938    -2.8295     0.2690 C.ar    
  28 O28           -1.8287     2.9657     2.3003 O.3     
  29 O29           -3.4982     1.5042     2.3462 O.2     
  30 C30           -2.1636     3.3407     3.6625 C.3     
  31 C31           -2.0415     2.1172     4.5730 C.3     
  32 C32           -1.2034     4.4311     4.1420 C.3     
  33 C33           -3.5988     3.8690     3.7079 C.3     
  34 C34            6.2269     5.2703     2.9887 C.2     
  35 N35            6.6357     4.3104     2.2139 N.2     
  36 O36            5.7824     4.0390     1.3957 O.3     
  37 C37            6.9959     5.8839     4.1302 C.3     
  38 H38            3.6583     2.7127     0.5887 H       
  39 H39            2.6743     5.3710     1.2906 H       
  40 H40            4.4670     3.6719    -1.4945 H       
  41 H41            4.9742     5.1698    -2.3114 H       
  42 H42            5.7114     4.7098    -0.7579 H       
  43 H43            1.6395     6.0166    -0.8899 H       
  44 H44            2.5964     5.9329    -2.3885 H       
  45 H45            2.0892     4.4350    -1.5716 H       
  46 H46            5.0802     6.9298     0.1989 H       
  47 H47            4.3430     7.3898    -1.3546 H       
  48 H48            3.3862     7.4735     0.1440 H       
  49 H49           -0.7982    -1.7859    -0.9184 H       
  50 H50           -1.4878    -1.2067     0.6131 H       
  51 H51           -1.8382     0.4445    -1.8878 H       
  52 H52           -2.8682    -0.9819    -1.6286 H       
  53 H53           -3.9531     1.0504    -0.7183 H       
  54 H54           -3.5410    -0.0779     0.5964 H       
  55 H55           -1.0279     3.2251     0.0782 H       
  56 H56           -1.4887     2.2666    -1.3529 H       
  57 H57            3.7330    -1.2271    -0.9319 H       
  58 H58            4.5422    -3.5468    -1.0524 H       
  59 H59            3.0906    -5.3996    -0.3370 H       
  60 H60            0.8235    -4.9446     0.5027 H       
  61 H61           -0.0016    -2.6312     0.6382 H       
  62 H62           -1.0190     1.7409     4.5407 H       
  63 H63           -2.2929     2.3988     5.5956 H       
  64 H64           -2.7256     1.3404     4.2314 H       
  65 H65           -1.2903     5.3028     3.4933 H       
  66 H66           -1.4547     4.7127     5.1645 H       
  67 H67           -0.1809     4.0548     4.1097 H       
  68 H68           -4.2829     3.0922     3.3663 H       
  69 H69           -3.8501     4.1506     4.7304 H       
  70 H70           -3.6857     4.7407     3.0592 H       
  71 H71            6.7771     5.3404     5.0494 H       
  72 H72            8.0641     5.8278     3.9205 H       
  73 H73            6.7028     6.9273     4.2465 H       
@<TRIPOS>BOND
   1    1    2 1
   2    1    5 2
   3    1   20 1
   4    2    3 1
   5    2   16 1
   6    3    4 2
   7    3   21 1
   8    4    5 1
   9    5    6 1
  10    6    7 2
  11    6    8 am
  12    8    9 1
  13    8   38 1
  14    9   10 1
  15    9   12 1
  16    9   39 1
  17   10   11 1
  18   10   13 1
  19   10   14 1
  20   11   40 1
  21   11   41 1
  22   11   42 1
  23   12   15 2
  24   12   36 1
  25   13   43 1
  26   13   44 1
  27   13   45 1
  28   14   46 1
  29   14   47 1
  30   14   48 1
  31   15   34 1
  32   16   17 1
  33   16   49 1
  34   16   50 1
  35   17   18 1
  36   17   51 1
  37   17   52 1
  38   18   19 1
  39   18   53 1
  40   18   54 1
  41   19   20 1
  42   19   22 am
  43   20   55 1
  44   20   56 1
  45   21   23 ar
  46   21   27 ar
  47   22   28 1
  48   22   29 2
  49   23   24 ar
  50   23   57 1
  51   24   25 ar
  52   24   58 1
  53   25   26 ar
  54   25   59 1
  55   26   27 ar
  56   26   60 1
  57   27   61 1
  58   28   30 1
  59   30   31 1
  60   30   32 1
  61   30   33 1
  62   31   62 1
  63   31   63 1
  64   31   64 1
  65   32   65 1
  66   32   66 1
  67   32   67 1
  68   33   68 1
  69   33   69 1
  70   33   70 1
  71   34   35 2
  72   34   37 1
  73   35   36 1
  74   37   71 1
  75   37   72 1
  76   37   73 1

#	End of record

