#	Name: ASD08178431
#	Creating user name:	WinNT
#	Creation time:	15. 06. 2019 21:18

#	Modifying user name:	WinNT
#	Modification time:	15. 06. 2019 21:18

#	Program:	/corina/corina34_cracker 3.40 0067  02.08.2006

@<TRIPOS>MOLECULE
ASD08178431
  87   90    0    0    0
SMALL
NO_CHARGES


@<TRIPOS>ATOM
   1 N1            -2.0420     1.0510     0.5510 N.am    
   2 C2            -1.8658    -0.3314     0.5021 C.ar    
   3 C3            -0.5862    -0.8700     0.3818 C.ar    
   4 N4            -2.9135    -1.1386     0.5754 N.ar    
   5 N5            -2.7940    -2.4159     0.5346 N.ar    
   6 C6            -1.6228    -3.0101     0.4172 C.ar    
   7 C7            -0.4645    -2.2505     0.3381 C.ar    
   8 C8            -1.5418    -4.5143     0.3749 C.3     
   9 C9            -2.2333    -5.0972     1.6090 C.3     
  10 C10           -2.1511    -6.6243     1.5660 C.3     
  11 C11           -2.8426    -7.2072     2.8001 C.3     
  12 C12           -2.7616    -8.7114     2.7578 C.2     
  13 N13           -1.8157    -9.4400     3.2600 N.2     
  14 N14           -1.9303   -10.6895     3.1200 N.2     
  15 C15           -2.9767   -11.1323     2.4906 C.2     
  16 S16           -3.9418    -9.7966     2.0222 S.3     
  17 N17           -3.2681   -12.4694     2.2430 N.am    
  18 C18           -2.4279   -13.4326     2.6705 C.2     
  19 C19           -2.7437   -14.8815     2.4022 C.3     
  20 O20           -1.4176   -13.1333     3.2711 O.2     
  21 C21           -1.6543   -15.7483     2.9792 C.ar    
  22 C22           -1.7520   -16.2073     4.2792 C.ar    
  23 C23           -0.7525   -17.0024     4.8085 C.ar    
  24 C24            0.3442   -17.3387     4.0375 C.ar    
  25 C25            0.4415   -16.8803     2.7368 C.ar    
  26 C26           -0.5598   -16.0890     2.2062 C.ar    
  27 C27           -3.2848     1.5726     0.5454 C.2     
  28 C28           -3.4795     3.0576     0.7117 C.3     
  29 O29           -4.2464     0.8467     0.4065 O.2     
  30 C30           -4.9512     3.3791     0.6698 C.ar    
  31 C31           -5.6908     3.3852     1.8376 C.ar    
  32 C32           -7.0408     3.6800     1.7992 C.ar    
  33 C33           -7.6511     3.9693     0.5931 C.ar    
  34 C34           -6.9112     3.9641    -0.5746 C.ar    
  35 C35           -5.5603     3.6735    -0.5357 C.ar    
  36 C36            1.6375   -17.2466     1.8962 C.3     
  37 N37            2.8109   -17.4045     2.7591 N.am    
  38 C38            1.3627   -18.5614     1.1636 C.3     
  39 C39            1.9013   -16.1388     0.8744 C.3     
  40 C40            3.9948   -17.7674     2.2269 C.2     
  41 O41            5.0731   -17.9124     3.0199 O.3     
  42 O42            4.0889   -17.9636     1.0315 O.2     
  43 C43            6.3151   -18.3052     2.3784 C.3     
  44 C44            6.7075   -17.2529     1.3393 C.3     
  45 C45            7.4193   -18.4188     3.4313 C.3     
  46 C46            6.1272   -19.6579     1.6885 C.3     
  47 H47           -1.2703     1.6372     0.5929 H       
  48 H48            0.2834    -0.2321     0.3241 H       
  49 H49            0.5030    -2.7206     0.2413 H       
  50 H50           -2.0362    -4.8796    -0.5252 H       
  51 H51           -0.4961    -4.8217     0.3652 H       
  52 H52           -1.7388    -4.7318     2.5090 H       
  53 H53           -3.2790    -4.7897     1.6187 H       
  54 H54           -2.6455    -6.9897     0.6660 H       
  55 H55           -1.1054    -6.9318     1.5563 H       
  56 H56           -2.3481    -6.8419     3.7002 H       
  57 H57           -3.8883    -6.8998     2.8098 H       
  58 H58           -4.0762   -12.7088     1.7627 H       
  59 H59           -3.6960   -15.1378     2.8665 H       
  60 H60           -2.8078   -15.0463     1.3267 H       
  61 H61           -2.6089   -15.9445     4.8817 H       
  62 H62           -0.8285   -17.3605     5.8246 H       
  63 H63            1.1254   -17.9593     4.4512 H       
  64 H64           -0.4838   -15.7309     1.1901 H       
  65 H65           -3.0657     3.3733     1.6694 H       
  66 H66           -2.9696     3.5836    -0.0955 H       
  67 H67           -5.2140     3.1592     2.7800 H       
  68 H68           -7.6188     3.6841     2.7115 H       
  69 H69           -8.7059     4.1989     0.5630 H       
  70 H70           -7.3881     4.1898    -1.5170 H       
  71 H71           -4.9823     3.6695    -1.4479 H       
  72 H72            2.7358   -17.2478     3.7134 H       
  73 H73            0.4896   -18.4439     0.5216 H       
  74 H74            2.2277   -18.8263     0.5557 H       
  75 H75            1.1748   -19.3506     1.8916 H       
  76 H76            2.0971   -15.2022     1.3963 H       
  77 H77            2.7663   -16.4038     0.2664 H       
  78 H78            1.0282   -16.0214     0.2324 H       
  79 H79            6.8413   -16.2893     1.8308 H       
  80 H80            7.6398   -17.5478     0.8578 H       
  81 H81            5.9208   -17.1720     0.5892 H       
  82 H82            7.1398   -19.1685     4.1715 H       
  83 H83            8.3516   -18.7137     2.9497 H       
  84 H84            7.5532   -17.4552     3.9228 H       
  85 H85            5.3405   -19.5770     0.9383 H       
  86 H86            7.0595   -19.9527     1.2069 H       
  87 H87            5.8477   -20.4076     2.4287 H       
@<TRIPOS>BOND
   1    1    2 1
   2    1   27 am
   3    1   47 1
   4    2    3 ar
   5    2    4 ar
   6    3    7 ar
   7    3   48 1
   8    4    5 ar
   9    5    6 ar
  10    6    7 ar
  11    6    8 1
  12    7   49 1
  13    8    9 1
  14    8   50 1
  15    8   51 1
  16    9   10 1
  17    9   52 1
  18    9   53 1
  19   10   11 1
  20   10   54 1
  21   10   55 1
  22   11   12 1
  23   11   56 1
  24   11   57 1
  25   12   13 2
  26   12   16 1
  27   13   14 1
  28   14   15 2
  29   15   16 1
  30   15   17 1
  31   17   18 am
  32   17   58 1
  33   18   19 1
  34   18   20 2
  35   19   21 1
  36   19   59 1
  37   19   60 1
  38   21   22 ar
  39   21   26 ar
  40   22   23 ar
  41   22   61 1
  42   23   24 ar
  43   23   62 1
  44   24   25 ar
  45   24   63 1
  46   25   26 ar
  47   25   36 1
  48   26   64 1
  49   27   28 1
  50   27   29 2
  51   28   30 1
  52   28   65 1
  53   28   66 1
  54   30   31 ar
  55   30   35 ar
  56   31   32 ar
  57   31   67 1
  58   32   33 ar
  59   32   68 1
  60   33   34 ar
  61   33   69 1
  62   34   35 ar
  63   34   70 1
  64   35   71 1
  65   36   37 1
  66   36   38 1
  67   36   39 1
  68   37   40 am
  69   37   72 1
  70   38   73 1
  71   38   74 1
  72   38   75 1
  73   39   76 1
  74   39   77 1
  75   39   78 1
  76   40   41 1
  77   40   42 2
  78   41   43 1
  79   43   44 1
  80   43   45 1
  81   43   46 1
  82   44   79 1
  83   44   80 1
  84   44   81 1
  85   45   82 1
  86   45   83 1
  87   45   84 1
  88   46   85 1
  89   46   86 1
  90   46   87 1

#	End of record

