#	Name: ASD05730114
#	Creating user name:	WinNT
#	Creation time:	15. 06. 2019 21:02

#	Modifying user name:	WinNT
#	Modification time:	15. 06. 2019 21:02

#	Program:	/corina/corina34_cracker 3.40 0067  02.08.2006

@<TRIPOS>MOLECULE
ASD05730114
  81   87    0    0    0
SMALL
NO_CHARGES


@<TRIPOS>ATOM
   1 C1             0.0148     1.5028     0.0507 C.3     
   2 C2             0.0265    -0.0041     0.0317 C.ar    
   3 C3            -1.1611    -0.7045     0.1380 C.ar    
   4 C4            -1.1540    -2.0854     0.1209 C.ar    
   5 C5             0.0477    -2.7707    -0.0037 C.ar    
   6 C6             1.2388    -2.0641    -0.1108 C.ar    
   7 C7             1.2241    -0.6832    -0.0978 C.ar    
   8 N8             0.0586    -4.1686    -0.0209 N.pl3   
   9 C9             0.9768    -4.8429    -0.8029 C.ar    
  10 N10            1.0413    -6.1627    -0.7163 N.ar    
  11 C11            1.9109    -6.8454    -1.4519 C.ar    
  12 C12            2.7632    -6.1369    -2.3261 C.ar    
  13 C13            2.6560    -4.7390    -2.3814 C.ar    
  14 N14            1.7590    -4.1437    -1.6179 N.ar    
  15 N15            1.9853    -8.2154    -1.3683 N.am    
  16 C16            2.8702    -8.9018    -2.1166 C.2     
  17 C17            3.7684    -8.1966    -3.0326 C.2     
  18 C18            3.7004    -6.8319    -3.1241 C.2     
  19 C19            1.1383    -8.8998    -0.5017 C.2     
  20 S20            1.1158   -10.5964    -0.2912 S.3     
  21 O21            2.9237   -10.1157    -2.0304 O.2     
  22 C22            4.7416    -8.9530    -3.8548 C.ar    
  23 C23            5.8877    -9.4873    -3.2679 C.ar    
  24 C24            4.5118    -9.1387    -5.2189 C.ar    
  25 C25            5.4226    -9.8451    -5.9793 C.ar    
  26 C26            6.5604   -10.3679    -5.3912 C.ar    
  27 C27            6.7905   -10.1914    -4.0387 C.ar    
  28 O28            1.1846     1.9809     0.7203 O.3     
  29 S29            7.7182   -11.2682    -6.3679 S.o2    
  30 C30            8.8798   -10.0103    -6.9669 C.3     
  31 O31            8.3572   -12.1365    -5.4422 O.2     
  32 O32            6.9441   -11.7841    -7.4421 O.2     
  33 Cl33           3.0840    -8.4835    -5.9578 Cl      
  34 C34            9.8739   -10.6530    -7.9382 C.3     
  35 C35            8.1080    -8.9064    -7.6951 C.3     
  36 C36            9.0978    -7.8799    -8.2507 C.3     
  37 N37           10.0264    -8.5438    -9.1745 N.3     
  38 C38           10.8126    -9.5759    -8.4867 C.3     
  39 C39           10.9029    -7.5659    -9.8330 C.3     
  40 C40            0.0034     2.0321    -1.3858 C.3     
  41 N41            0.0700     3.5005    -1.3621 N.3     
  42 C42            1.2827     3.9558    -0.6667 C.3     
  43 C43            1.2813     3.4072     0.7626 C.3     
  44 C44            0.0042     4.0526    -2.7218 C.3     
  45 N45            0.2557    -8.3434     0.2672 N.2     
  46 C46           -0.4648    -9.1450     1.0276 C.2     
  47 C47           -0.1761   -10.4420     0.8967 C.2     
  48 H48           -0.8739     1.8533     0.5755 H       
  49 H49           -2.0952    -0.1711     0.2349 H       
  50 H50           -2.0818    -2.6319     0.2047 H       
  51 H51            2.1749    -2.5939    -0.2078 H       
  52 H52            2.1498    -0.1331    -0.1810 H       
  53 H53           -0.5786    -4.6652     0.5161 H       
  54 H54            3.2912    -4.1628    -3.0378 H       
  55 H55            4.3550    -6.2944    -3.7942 H       
  56 H56            6.0691    -9.3502    -2.2121 H       
  57 H57            5.2462    -9.9899    -7.0349 H       
  58 H58            7.6809   -10.6018    -3.5856 H       
  59 H59            9.4203    -9.5821    -6.1228 H       
  60 H60           10.4564   -11.4108    -7.4142 H       
  61 H61            9.3304   -11.1159    -8.7618 H       
  62 H62            7.5367    -9.3418    -8.5149 H       
  63 H63            7.4288    -8.4164    -6.9975 H       
  64 H64            8.5524    -7.1001    -8.7821 H       
  65 H65            9.6591    -7.4349    -7.4291 H       
  66 H66           11.3658    -9.1230    -7.6640 H       
  67 H67           11.5125   -10.0278    -9.1895 H       
  68 H68           11.4817    -7.0316    -9.0796 H       
  69 H69           11.5804    -8.0843   -10.5115 H       
  70 H70           10.2969    -6.8564   -10.3964 H       
  71 H71            0.8640     1.6374    -1.9260 H       
  72 H72           -0.9144     1.7173    -1.8824 H       
  73 H73            2.1637     3.5919    -1.1954 H       
  74 H74            1.2986     5.0453    -0.6384 H       
  75 H75            0.4294     3.8137     1.3076 H       
  76 H76            2.2056     3.6946     1.2637 H       
  77 H77           -0.9330     3.7528    -3.1907 H       
  78 H78            0.0554     5.1404    -2.6751 H       
  79 H79            0.8413     3.6742    -3.3085 H       
  80 H80           -1.2251    -8.7814     1.7030 H       
  81 H81           -0.6504   -11.2543     1.4274 H       
@<TRIPOS>BOND
   1    1    2 1
   2    1   28 1
   3    1   40 1
   4    1   48 1
   5    2    3 ar
   6    2    7 ar
   7    3    4 ar
   8    3   49 1
   9    4    5 ar
  10    4   50 1
  11    5    6 ar
  12    5    8 1
  13    6    7 ar
  14    6   51 1
  15    7   52 1
  16    8    9 1
  17    8   53 1
  18    9   10 ar
  19    9   14 ar
  20   10   11 ar
  21   11   12 ar
  22   11   15 1
  23   12   13 ar
  24   12   18 1
  25   13   14 ar
  26   13   54 1
  27   15   16 am
  28   15   19 1
  29   16   17 1
  30   16   21 2
  31   17   18 2
  32   17   22 1
  33   18   55 1
  34   19   20 1
  35   19   45 2
  36   20   47 1
  37   22   24 ar
  38   22   23 ar
  39   23   27 ar
  40   23   56 1
  41   24   25 ar
  42   24   33 1
  43   25   26 ar
  44   25   57 1
  45   26   27 ar
  46   26   29 1
  47   27   58 1
  48   28   43 1
  49   29   30 1
  50   29   31 2
  51   29   32 2
  52   30   34 1
  53   30   35 1
  54   30   59 1
  55   34   38 1
  56   34   60 1
  57   34   61 1
  58   35   36 1
  59   35   62 1
  60   35   63 1
  61   36   37 1
  62   36   64 1
  63   36   65 1
  64   37   38 1
  65   37   39 1
  66   38   66 1
  67   38   67 1
  68   39   68 1
  69   39   69 1
  70   39   70 1
  71   40   41 1
  72   40   71 1
  73   40   72 1
  74   41   42 1
  75   41   44 1
  76   42   43 1
  77   42   73 1
  78   42   74 1
  79   43   75 1
  80   43   76 1
  81   44   77 1
  82   44   78 1
  83   44   79 1
  84   45   46 1
  85   46   47 2
  86   46   80 1
  87   47   81 1

#	End of record

