#	Name: ASD03090735
#	Creating user name:	WinNT
#	Creation time:	15. 06. 2019 20:29

#	Modifying user name:	WinNT
#	Modification time:	15. 06. 2019 20:29

#	Program:	/corina/corina34_cracker 3.40 0067  02.08.2006

@<TRIPOS>MOLECULE
ASD03090735
  37   38    0    0    0
SMALL
NO_CHARGES


@<TRIPOS>ATOM
   1 N1            -0.0162     1.3436     0.0094 N.am    
   2 C2             0.0141    -0.0039     0.0038 C.2     
   3 O3             1.0756    -0.5876    -0.1001 O.2     
   4 N4            -1.1322    -0.7042     0.1132 N.am    
   5 O5            -1.7774    -4.0650     0.1678 O.3     
   6 N6            -2.1236    -2.9070     0.2041 N.2     
   7 C7            -1.1008    -2.0986     0.1073 C.2     
   8 C8             0.0486    -2.9251    -0.0058 C.2     
   9 C9            -0.4479    -4.1823     0.0390 C.2     
  10 C10            0.3394    -5.4648    -0.0403 C.3     
  11 C11            0.7441    -5.9028     1.3687 C.3     
  12 C12            1.2322     3.3675     0.4992 C.ar    
  13 C13            1.1831     2.0727    -0.0136 C.ar    
  14 C14            2.3377     1.5127    -0.5478 C.ar    
  15 C15            3.4995     2.2687    -0.5495 C.ar    
  16 C16            3.4754     3.5511    -0.0223 C.ar    
  17 N17            2.3602     4.0574     0.4797 N.ar    
  18 O18            4.6099     4.2966    -0.0209 O.3     
  19 C19            4.5225     5.6099     0.5356 C.3     
  20 O20            0.1102     3.9279     1.0186 O.3     
  21 C21            0.2256     5.2579     1.5284 C.3     
  22 H22           -0.8668     1.8095     0.0254 H       
  23 H23           -1.9790    -0.2385     0.1960 H       
  24 H24            1.0800    -2.6204    -0.1051 H       
  25 H25           -0.2741    -6.2399    -0.4996 H       
  26 H26            1.2341    -5.3053    -0.6423 H       
  27 H27            1.3136    -6.8304     1.3113 H       
  28 H28            1.3576    -5.1277     1.8279 H       
  29 H29           -0.1505    -6.0623     1.9706 H       
  30 H30            2.3298     0.5112    -0.9520 H       
  31 H31            4.4139     1.8631    -0.9568 H       
  32 H32            3.7897     6.1929    -0.0222 H       
  33 H33            4.2151     5.5425     1.5792 H       
  34 H34            5.4962     6.0960     0.4743 H       
  35 H35           -0.7406     5.5848     1.9125 H       
  36 H36            0.9613     5.2762     2.3324 H       
  37 H37            0.5442     5.9270     0.7291 H       
@<TRIPOS>BOND
   1    1    2 am
   2    1   13 1
   3    1   22 1
   4    2    3 2
   5    2    4 am
   6    4    7 1
   7    4   23 1
   8    5    6 1
   9    5    9 1
  10    6    7 2
  11    7    8 1
  12    8    9 2
  13    8   24 1
  14    9   10 1
  15   10   11 1
  16   10   25 1
  17   10   26 1
  18   11   27 1
  19   11   28 1
  20   11   29 1
  21   12   13 ar
  22   12   17 ar
  23   12   20 1
  24   13   14 ar
  25   14   15 ar
  26   14   30 1
  27   15   16 ar
  28   15   31 1
  29   16   17 ar
  30   16   18 1
  31   18   19 1
  32   19   32 1
  33   19   33 1
  34   19   34 1
  35   20   21 1
  36   21   35 1
  37   21   36 1
  38   21   37 1

#	End of record

