#	Name: ASD01820113
#	Creating user name:	WinNT
#	Creation time:	15. 06. 2019 19:36

#	Modifying user name:	WinNT
#	Modification time:	15. 06. 2019 19:36

#	Program:	/corina/corina34_cracker 3.40 0067  02.08.2006

@<TRIPOS>MOLECULE
ASD01820113
  53   56    0    0    0
SMALL
NO_CHARGES


@<TRIPOS>ATOM
   1 C1            -0.0415     1.5150     0.0319 C.3     
   2 C2             0.0001    -0.0141     0.0004 C.3     
   3 N3             0.7092    -0.5078     1.1835 N.am    
   4 C4             2.0538    -0.5998     1.1737 C.2     
   5 O5             2.6719    -0.3674     0.1521 O.2     
   6 C6             2.7740    -0.9814     2.3986 C.2     
   7 C7             4.1364    -1.1925     2.3748 C.2     
   8 N8             4.8260    -1.5413     3.4718 N.pl3   
   9 C9             4.2335    -1.7156     4.7022 C.ar    
  10 N10            4.9637    -2.0613     5.7554 N.ar    
  11 C11            4.4190    -2.2344     6.9478 C.ar    
  12 C12            3.0502    -2.0619     7.1552 C.ar    
  13 C13            2.2505    -1.7052     6.1023 C.ar    
  14 C14            2.8476    -1.5272     4.8496 C.ar    
  15 C15            2.0538    -1.1387     3.6732 C.2     
  16 O16            0.8506    -0.9589     3.7496 O.2     
  17 N17            5.2279    -2.5968     8.0179 N.am    
  18 C18            6.6818    -2.8076     7.9539 C.3     
  19 C19            7.0638    -3.1867     9.3978 C.3     
  20 N20            5.7846    -3.1493    10.1221 N.am    
  21 C21            4.8080    -2.8039     9.2728 C.2     
  22 O22            3.6452    -2.6924     9.6097 O.2     
  23 C23            6.2098    -1.7372     3.3600 C.ar    
  24 C24            6.7120    -2.9948     3.0457 C.ar    
  25 F25            5.8670    -4.0300     2.8471 F       
  26 C26            8.0777    -3.1850     2.9362 C.ar    
  27 C27            8.9444    -2.1243     3.1396 C.ar    
  28 F28           10.2778    -2.3132     3.0324 F       
  29 C29            8.4470    -0.8704     3.4523 C.ar    
  30 C30            7.0820    -0.6729     3.5576 C.ar    
  31 F31            6.5972     0.5520     3.8572 F       
  32 C32           -1.4280    -0.5631    -0.0044 C.3     
  33 F33           -2.0947    -0.1384     1.1499 F       
  34 F34           -2.1051    -0.0916    -1.1341 F       
  35 C35           -1.3864    -2.0922    -0.0359 C.3     
  36 F36           -0.7093    -2.5637     1.0939 F       
  37 F37           -2.6922    -2.5942    -0.0402 F       
  38 F38           -0.7197    -2.5169    -1.1901 F       
  39 H39            0.9759     1.9062     0.0353 H       
  40 H40           -0.5690     1.8824    -0.8483 H       
  41 H41           -0.5609     1.8459     0.9312 H       
  42 H42            0.5196    -0.3449    -0.8989 H       
  43 H43            0.2110    -0.7685     1.9739 H       
  44 H44            4.6665    -1.0735     1.4414 H       
  45 H45            2.6251    -2.2086     8.1371 H       
  46 H46            1.1880    -1.5648     6.2354 H       
  47 H47            6.9207    -3.6210     7.2688 H       
  48 H48            7.1884    -1.8908     7.6523 H       
  49 H49            7.4924    -4.1884     9.4297 H       
  50 H50            7.7601    -2.4582     9.8132 H       
  51 H51            5.6672    -3.3403    11.0659 H       
  52 H52            8.4685    -4.1618     2.6921 H       
  53 H53            9.1253    -0.0450     3.6104 H       
@<TRIPOS>BOND
   1    1    2 1
   2    1   39 1
   3    1   40 1
   4    1   41 1
   5    2    3 1
   6    2   32 1
   7    2   42 1
   8    3    4 am
   9    3   43 1
  10    4    5 2
  11    4    6 1
  12    6   15 1
  13    6    7 2
  14    7    8 1
  15    7   44 1
  16    8    9 1
  17    8   23 1
  18    9   14 ar
  19    9   10 ar
  20   10   11 ar
  21   11   12 ar
  22   11   17 1
  23   12   13 ar
  24   12   45 1
  25   13   14 ar
  26   13   46 1
  27   14   15 1
  28   15   16 2
  29   17   21 am
  30   17   18 1
  31   18   19 1
  32   18   47 1
  33   18   48 1
  34   19   20 1
  35   19   49 1
  36   19   50 1
  37   20   21 am
  38   20   51 1
  39   21   22 2
  40   23   30 ar
  41   23   24 ar
  42   24   25 1
  43   24   26 ar
  44   26   27 ar
  45   26   52 1
  46   27   28 1
  47   27   29 ar
  48   29   30 ar
  49   29   53 1
  50   30   31 1
  51   32   33 1
  52   32   34 1
  53   32   35 1
  54   35   36 1
  55   35   37 1
  56   35   38 1

#	End of record

