#	Name: ASD00840572
#	Creating user name:	WinNT
#	Creation time:	15. 06. 2019 18:39

#	Modifying user name:	WinNT
#	Modification time:	15. 06. 2019 18:39

#	Program:	/corina/corina34_cracker 3.40 0067  02.08.2006

@<TRIPOS>MOLECULE
ASD00840572
  93   98    0    0    0
SMALL
NO_CHARGES


@<TRIPOS>ATOM
   1 N1             1.0627     1.4574    -0.7518 N.ar    
   2 C2             1.3248     0.1656    -0.8591 C.ar    
   3 C3             1.2446    -0.6674     0.2497 C.ar    
   4 C4             0.8860    -0.1280     1.4725 C.ar    
   5 C5             0.6190     1.2326     1.5433 C.ar    
   6 C6             0.7184     2.0006     0.4005 C.ar    
   7 C7             1.5436    -2.1390     0.1225 C.3     
   8 C8             1.2615    -2.8523     1.4277 C.2     
   9 C9             0.7239    -2.7549    -1.0131 C.3     
  10 C10           -0.7383    -2.4653    -0.7916 C.2     
  11 N11           -1.6621    -2.9868    -1.6228 N.am    
  12 O12           -1.0837    -1.7628     0.1348 O.2     
  13 C13           -3.0796    -2.6248    -1.4883 C.3     
  14 C14           -3.9074    -3.9085    -1.3715 C.3     
  15 C15           -3.6014    -4.8184    -2.5634 C.3     
  16 C16           -2.1187    -5.1970    -2.5509 C.3     
  17 C17           -1.2698    -3.9235    -2.6847 C.3     
  18 N18           -4.4182    -6.0359    -2.4720 N.3     
  19 C19           -4.2393    -6.8806    -3.6612 C.3     
  20 C20           -5.0427    -8.1722    -3.4918 C.3     
  21 N21           -6.4607    -7.8415    -3.2929 N.3     
  22 C22           -6.6396    -6.9968    -2.1037 C.3     
  23 C23           -5.8362    -5.7052    -2.2731 C.3     
  24 C24           -7.2775    -9.0590    -3.2015 C.3     
  25 O25            0.1895    -2.9281     1.9900 O.2     
  26 N26            2.4217    -3.3852     1.8463 N.am    
  27 C27            3.0211    -2.3613    -0.1061 C.ar    
  28 C28            3.4738    -3.1157     0.9694 C.ar    
  29 C29            3.8819    -1.9713    -1.1071 C.ar    
  30 C30            5.2179    -2.3315    -1.0489 C.ar    
  31 C31            5.6820    -3.0838     0.0184 C.ar    
  32 C32            4.8183    -3.4754     1.0234 C.ar    
  33 Cl33           6.3073    -1.8427    -2.3090 Cl      
  34 F34            6.9850    -3.4359     0.0765 F       
  35 C35            2.2932    -5.9505     2.8349 C.ar    
  36 C36            1.0398    -6.3527     2.3976 C.ar    
  37 C37            3.3144    -6.8745     2.9455 C.ar    
  38 C38            3.0879    -8.1989     2.6202 C.ar    
  39 C39            1.8393    -8.6025     2.1840 C.ar    
  40 C40            0.8150    -7.6827     2.0722 C.ar    
  41 H41            1.6649    -9.6377     1.9305 H       
  42 O42            0.0336    -5.4458     2.2884 O.3     
  43 C43           -1.2305    -5.9311     1.8317 C.3     
  44 C44           -8.7225    -8.6802    -2.8711 C.3     
  45 C45           -7.2378    -9.8013    -4.5388 C.3     
  46 S46            2.5848    -4.2611     3.2422 S.o2    
  47 O47            3.9525    -4.1689     3.6163 O.2     
  48 O48            1.5179    -3.8634     4.0924 O.2     
  49 O49            1.6748    -0.3512    -2.0638 O.3     
  50 C50            2.1671    -0.1893    -4.4243 C.3     
  51 C51            1.6319     0.5325    -3.1860 C.3     
  52 H52            0.8152    -0.7512     2.3517 H       
  53 H53            0.3362     1.6852     2.4822 H       
  54 H54            0.5120     3.0596     0.4502 H       
  55 H55            1.0396    -2.3249    -1.9637 H       
  56 H56            0.8820    -3.8333    -1.0318 H       
  57 H57           -3.2185    -2.0178    -0.5937 H       
  58 H58           -3.3983    -2.0632    -2.3665 H       
  59 H59           -3.6514    -4.4235    -0.4455 H       
  60 H60           -4.9683    -3.6582    -1.3678 H       
  61 H61           -3.8345    -4.2937    -3.4900 H       
  62 H62           -1.8795    -5.6998    -1.6138 H       
  63 H63           -1.9064    -5.8637    -3.3866 H       
  64 H64           -1.4421    -3.4705    -3.6610 H       
  65 H65           -0.2146    -4.1748    -2.5772 H       
  66 H66           -4.5918    -6.3461    -4.5433 H       
  67 H67           -3.1830    -7.1223    -3.7800 H       
  68 H68           -4.9347    -8.7875    -4.3851 H       
  69 H69           -4.6721    -8.7201    -2.6255 H       
  70 H70           -7.6958    -6.7551    -1.9849 H       
  71 H71           -6.2871    -7.5313    -1.2216 H       
  72 H72           -5.9442    -5.0899    -1.3798 H       
  73 H73           -6.2068    -5.1573    -3.1394 H       
  74 H74           -6.8823    -9.7036    -2.4163 H       
  75 H75            3.5157    -1.3854    -1.9371 H       
  76 H76            5.1866    -4.0613     1.8525 H       
  77 H77            4.2905    -6.5618     3.2860 H       
  78 H78            3.8877    -8.9196     2.7067 H       
  79 H79           -0.1603    -7.9984     1.7321 H       
  80 H80           -1.1162    -6.3628     0.8374 H       
  81 H81           -1.5968    -6.6936     2.5190 H       
  82 H82           -1.9427    -5.1069     1.7902 H       
  83 H83           -9.3286    -9.5836    -2.8034 H       
  84 H84           -8.7508    -8.1514    -1.9184 H       
  85 H85           -9.1177    -8.0356    -3.6563 H       
  86 H86           -6.2083   -10.0712    -4.7742 H       
  87 H87           -7.8439   -10.7047    -4.4710 H       
  88 H88           -7.6330    -9.1567    -5.3240 H       
  89 H89            2.2163     0.5095    -5.2593 H       
  90 H90            3.1642    -0.5774    -4.2161 H       
  91 H91            1.5021    -1.0143    -4.6797 H       
  92 H92            0.6027     0.8444    -3.3637 H       
  93 H93            2.2471     1.4089    -2.9820 H       
@<TRIPOS>BOND
   1    1    2 ar
   2    1    6 ar
   3    2    3 ar
   4    2   49 1
   5    3    4 ar
   6    3    7 1
   7    4    5 ar
   8    4   52 1
   9    5    6 ar
  10    5   53 1
  11    6   54 1
  12    7    8 1
  13    7    9 1
  14    7   27 1
  15    8   25 2
  16    8   26 am
  17    9   10 1
  18    9   55 1
  19    9   56 1
  20   10   11 am
  21   10   12 2
  22   11   13 1
  23   11   17 1
  24   13   14 1
  25   13   57 1
  26   13   58 1
  27   14   15 1
  28   14   59 1
  29   14   60 1
  30   15   16 1
  31   15   18 1
  32   15   61 1
  33   16   17 1
  34   16   62 1
  35   16   63 1
  36   17   64 1
  37   17   65 1
  38   18   19 1
  39   18   23 1
  40   19   20 1
  41   19   66 1
  42   19   67 1
  43   20   21 1
  44   20   68 1
  45   20   69 1
  46   21   22 1
  47   21   24 1
  48   22   23 1
  49   22   70 1
  50   22   71 1
  51   23   72 1
  52   23   73 1
  53   24   44 1
  54   24   45 1
  55   24   74 1
  56   26   46 am
  57   26   28 1
  58   27   28 ar
  59   27   29 ar
  60   28   32 ar
  61   29   30 ar
  62   29   75 1
  63   30   31 ar
  64   30   33 1
  65   31   32 ar
  66   31   34 1
  67   32   76 1
  68   35   36 ar
  69   35   37 ar
  70   35   46 1
  71   36   42 1
  72   36   40 ar
  73   37   38 ar
  74   37   77 1
  75   38   39 ar
  76   38   78 1
  77   39   40 ar
  78   39   41 1
  79   40   79 1
  80   42   43 1
  81   43   80 1
  82   43   81 1
  83   43   82 1
  84   44   83 1
  85   44   84 1
  86   44   85 1
  87   45   86 1
  88   45   87 1
  89   45   88 1
  90   46   47 2
  91   46   48 2
  92   49   51 1
  93   50   51 1
  94   50   89 1
  95   50   90 1
  96   50   91 1
  97   51   92 1
  98   51   93 1

#	End of record

