#	Name: ASD08170217
#	Creating user name:	WinNT
#	Creation time:	15. 06. 2019 21:17

#	Modifying user name:	WinNT
#	Modification time:	15. 06. 2019 21:17

#	Program:	/corina/corina34_cracker 3.40 0067  02.08.2006

@<TRIPOS>MOLECULE
ASD08170217
 116  121    0    0    0
SMALL
NO_CHARGES


@<TRIPOS>ATOM
   1 N1             0.5023     0.7310     1.9026 N.2     
   2 N2             0.5288    -0.5285     1.8203 N.2     
   3 C3             1.6272     1.3676     1.7738 C.2     
   4 S4             2.8778     0.2257     1.5155 S.3     
   5 C5             1.6864    -1.0714     1.6132 C.2     
   6 C6             1.9653    -2.5464     1.4796 C.3     
   7 C7             1.8464    -2.9569     0.0105 C.3     
   8 C8             2.1295    -4.4544    -0.1251 C.3     
   9 C9             2.0107    -4.8649    -1.5941 C.3     
  10 C10            2.2896    -6.3398    -1.7277 C.2     
  11 N11            1.4147    -7.2923    -1.6564 N.2     
  12 S12            3.8650    -7.0788    -2.0168 S.3     
  13 C13            3.1229    -8.6227    -1.9965 C.2     
  14 N14            1.8489    -8.4697    -1.7946 N.2     
  15 N15            3.7755    -9.8382    -2.1720 N.am    
  16 C16            3.0766   -10.9900    -2.1344 C.2     
  17 O17            1.8785   -10.9664    -1.9476 O.2     
  18 C18            3.7838   -12.3071    -2.3245 C.3     
  19 N19            1.7893     2.7475     1.8350 N.am    
  20 C20            4.8253   -12.4779    -1.2488 C.ar    
  21 C21            0.7216     3.5429     2.0444 C.2     
  22 C22            0.8973     5.0381     2.1107 C.3     
  23 O23           -0.3806     3.0552     2.1795 O.2     
  24 C24            5.9230   -13.2879    -1.4719 C.ar    
  25 C25            6.8782   -13.4447    -0.4851 C.ar    
  26 C26            6.7360   -12.7911     0.7246 C.ar    
  27 C27            5.6388   -11.9804     0.9474 C.ar    
  28 C28            4.6857   -11.8202    -0.0410 C.ar    
  29 C29            1.4714     5.5346     0.8088 C.ar    
  30 C30            2.1967     6.7110     0.7772 C.ar    
  31 C31            2.7232     7.1665    -0.4171 C.ar    
  32 C32            2.5248     6.4454    -1.5796 C.ar    
  33 C33            1.8003     5.2685    -1.5479 C.ar    
  34 C34            1.2775     4.8108    -0.3529 C.ar    
  35 N35           -0.4057     5.6743     2.3456 N.3     
  36 C36           -0.9632     5.2692     3.6429 C.3     
  37 C37           -2.2263     6.0878     3.9304 C.3     
  38 N38           -3.1431     5.9488     2.7888 N.am    
  39 C39           -2.6179     6.2055     1.4392 C.3     
  40 C40           -1.3394     5.3822     1.2497 C.3     
  41 C41           -4.4306     5.5960     2.9745 C.2     
  42 O42           -5.2544     5.4738     1.9167 O.3     
  43 O43           -4.8478     5.3881     4.0967 O.2     
  44 C44           -6.6278     5.0907     2.1915 C.3     
  45 C45           -7.2771     6.1369     3.0996 C.3     
  46 C46           -7.4056     5.0033     0.8768 C.3     
  47 C47           -6.6477     3.7283     2.8874 C.3     
  48 N48            2.8090   -13.4028    -2.2408 N.3     
  49 C49            1.8200   -13.3114    -3.3232 C.3     
  50 C50            0.9363   -14.5633    -3.3102 C.3     
  51 N51            0.3700   -14.7214    -1.9620 N.am    
  52 C52            1.2877   -14.6851    -0.8131 C.3     
  53 C53            2.1575   -13.4285    -0.9245 C.3     
  54 C54           -0.9546   -14.8954    -1.7841 C.2     
  55 O55           -1.6981   -14.9233    -2.7447 O.2     
  56 O56           -1.4539   -15.0384    -0.5419 O.3     
  57 C57           -2.8896   -15.2219    -0.4257 C.3     
  58 C58           -3.3054   -16.4842    -1.1837 C.3     
  59 C59           -3.2676   -15.3654     1.0499 C.3     
  60 C60           -3.6086   -14.0096    -1.0208 C.3     
  61 H61            2.9731    -2.7593     1.8360 H       
  62 H62            1.2438    -3.1078     2.0733 H       
  63 H63            0.8386    -2.7440    -0.3458 H       
  64 H64            2.5679    -2.3955    -0.5831 H       
  65 H65            3.1374    -4.6673     0.2313 H       
  66 H66            1.4081    -5.0158     0.4686 H       
  67 H67            1.0028    -4.6520    -1.9505 H       
  68 H68            2.7322    -4.3035    -2.1878 H       
  69 H69            4.7338    -9.8570    -2.3214 H       
  70 H70            4.2654   -12.3231    -3.3023 H       
  71 H71            2.6709     3.1375     1.7269 H       
  72 H72            1.5761     5.2884     2.9260 H       
  73 H73            6.0341   -13.7986    -2.4170 H       
  74 H74            7.7355   -14.0781    -0.6591 H       
  75 H75            7.4820   -12.9141     1.4959 H       
  76 H76            5.5275   -11.4700     1.8927 H       
  77 H77            3.8284   -11.1868     0.1331 H       
  78 H78            2.3516     7.2744     1.6854 H       
  79 H79            3.2892     8.0859    -0.4419 H       
  80 H80            2.9356     6.8016    -2.5128 H       
  81 H81            1.6451     4.7053    -2.4562 H       
  82 H82            0.7114     3.8913    -0.3280 H       
  83 H83           -1.2153     4.2091     3.6153 H       
  84 H84           -0.2274     5.4482     4.4268 H       
  85 H85           -2.7073     5.7135     4.8341 H       
  86 H86           -1.9608     7.1369     4.0612 H       
  87 H87           -3.3579     5.9090     0.6958 H       
  88 H88           -2.3901     7.2658     1.3305 H       
  89 H89           -0.8764     5.6432     0.2981 H       
  90 H90           -1.5862     4.3205     1.2555 H       
  91 H91           -7.2629     7.1075     2.6038 H       
  92 H92           -8.3080     5.8493     3.3059 H       
  93 H93           -6.7229     6.1992     4.0362 H       
  94 H94           -6.9430     4.2580     0.2298 H       
  95 H95           -8.4366     4.7157     1.0831 H       
  96 H96           -7.3914     5.9739     0.3810 H       
  97 H97           -6.0935     3.7906     3.8240 H       
  98 H98           -7.6786     3.4407     3.0937 H       
  99 H99           -6.1850     2.9830     2.2404 H       
 100 H100           1.2001   -12.4271    -3.1757 H       
 101 H101           2.3349   -13.2396    -4.2812 H       
 102 H102           0.1301   -14.4499    -4.0349 H       
 103 H103           1.5367   -15.4380    -3.5600 H       
 104 H104           0.7138   -14.6523     0.1130 H       
 105 H105           1.9219   -15.5715    -0.8230 H       
 106 H106           2.9172   -13.4415    -0.1429 H       
 107 H107           1.5330   -12.5425    -0.8104 H       
 108 H108          -2.7932   -17.3479    -0.7598 H       
 109 H109          -4.3831   -16.6220    -1.0965 H       
 110 H110          -3.0361   -16.3820    -2.2350 H       
 111 H111          -2.9714   -14.4661     1.5899 H       
 112 H112          -4.3453   -15.5032     1.1372 H       
 113 H113          -2.7554   -16.2291     1.4739 H       
 114 H114          -3.3393   -13.9074    -2.0721 H       
 115 H115          -4.6863   -14.1473    -0.9336 H       
 116 H116          -3.3124   -13.1103    -0.4808 H       
@<TRIPOS>BOND
   1    1    2 1
   2    1    3 2
   3    2    5 2
   4    3    4 1
   5    3   19 1
   6    4    5 1
   7    5    6 1
   8    6    7 1
   9    6   61 1
  10    6   62 1
  11    7    8 1
  12    7   63 1
  13    7   64 1
  14    8    9 1
  15    8   65 1
  16    8   66 1
  17    9   10 1
  18    9   67 1
  19    9   68 1
  20   10   11 2
  21   10   12 1
  22   11   14 1
  23   12   13 1
  24   13   14 2
  25   13   15 1
  26   15   16 am
  27   15   69 1
  28   16   17 2
  29   16   18 1
  30   18   20 1
  31   18   48 1
  32   18   70 1
  33   19   21 am
  34   19   71 1
  35   20   24 ar
  36   20   28 ar
  37   21   22 1
  38   21   23 2
  39   22   29 1
  40   22   35 1
  41   22   72 1
  42   24   25 ar
  43   24   73 1
  44   25   26 ar
  45   25   74 1
  46   26   27 ar
  47   26   75 1
  48   27   28 ar
  49   27   76 1
  50   28   77 1
  51   29   30 ar
  52   29   34 ar
  53   30   31 ar
  54   30   78 1
  55   31   32 ar
  56   31   79 1
  57   32   33 ar
  58   32   80 1
  59   33   34 ar
  60   33   81 1
  61   34   82 1
  62   35   36 1
  63   35   40 1
  64   36   37 1
  65   36   83 1
  66   36   84 1
  67   37   38 1
  68   37   85 1
  69   37   86 1
  70   38   39 1
  71   38   41 am
  72   39   40 1
  73   39   87 1
  74   39   88 1
  75   40   89 1
  76   40   90 1
  77   41   42 1
  78   41   43 2
  79   42   44 1
  80   44   45 1
  81   44   46 1
  82   44   47 1
  83   45   91 1
  84   45   92 1
  85   45   93 1
  86   46   94 1
  87   46   95 1
  88   46   96 1
  89   47   97 1
  90   47   98 1
  91   47   99 1
  92   48   49 1
  93   48   53 1
  94   49   50 1
  95   49  100 1
  96   49  101 1
  97   50   51 1
  98   50  102 1
  99   50  103 1
 100   51   52 1
 101   51   54 am
 102   52   53 1
 103   52  104 1
 104   52  105 1
 105   53  106 1
 106   53  107 1
 107   54   55 2
 108   54   56 1
 109   56   57 1
 110   57   58 1
 111   57   59 1
 112   57   60 1
 113   58  108 1
 114   58  109 1
 115   58  110 1
 116   59  111 1
 117   59  112 1
 118   59  113 1
 119   60  114 1
 120   60  115 1
 121   60  116 1

#	End of record

