#	Name: ASD01840090
#	Creating user name:	WinNT
#	Creation time:	15. 06. 2019 19:37

#	Modifying user name:	WinNT
#	Modification time:	15. 06. 2019 19:37

#	Program:	/corina/corina34_cracker 3.40 0067  02.08.2006

@<TRIPOS>MOLECULE
ASD01840090
  32   34    0    0    0
SMALL
NO_CHARGES


@<TRIPOS>ATOM
   1 N1            -0.0164     1.3609     0.0095 N.pl3   
   2 C2             0.0021    -0.0041     0.0020 C.2     
   3 C3             1.2151     1.9697     0.0010 C.2     
   4 C4             2.2993     1.2189    -0.0133 C.2     
   5 S5             1.7186    -0.4548    -0.0168 S.3     
   6 C6             1.3255     3.4727     0.0075 C.3     
   7 C7             3.7318     1.6866    -0.0245 C.3     
   8 C8             4.2694     1.7177     1.4076 C.3     
   9 O9             5.6277     2.1613     1.3970 O.3     
  10 N10           -1.0787    -0.7542     0.0083 N.2     
  11 C11           -2.3380    -0.2743     0.0229 C.ar    
  12 C12           -2.5537     1.1145     0.0324 C.ar    
  13 C13           -1.3500     2.0194     0.0317 C.3     
  14 N14           -3.4013    -1.0831     0.0282 N.ar    
  15 C15           -4.6174    -0.5748     0.0421 C.ar    
  16 N16           -4.8360     0.7255     0.0512 N.ar    
  17 C17           -3.8267     1.5928     0.0467 C.ar    
  18 C18           -5.7979    -1.5114     0.0474 C.3     
  19 H19            1.3617     3.8299     1.0367 H       
  20 H20            2.2348     3.7724    -0.5133 H       
  21 H21            0.4597     3.9027    -0.4960 H       
  22 H22            4.3328     1.0023    -0.6234 H       
  23 H23            3.7840     2.6871    -0.4540 H       
  24 H24            3.6684     2.4020     2.0065 H       
  25 H25            4.2172     0.7172     1.8371 H       
  26 H26            6.0339     2.2054     2.2735 H       
  27 H27           -1.4050     2.6536     0.9165 H       
  28 H28           -1.4141     2.6642    -0.8448 H       
  29 H29           -4.0149     2.6562     0.0539 H       
  30 H30           -6.0733    -1.7432     1.0762 H       
  31 H31           -6.6403    -1.0371    -0.4562 H       
  32 H32           -5.5341    -2.4315    -0.4742 H       
@<TRIPOS>BOND
   1    1    2 1
   2    1    3 1
   3    1   13 1
   4    2   10 2
   5    2    5 1
   6    3    4 2
   7    3    6 1
   8    4    5 1
   9    4    7 1
  10    6   19 1
  11    6   20 1
  12    6   21 1
  13    7    8 1
  14    7   22 1
  15    7   23 1
  16    8    9 1
  17    8   24 1
  18    8   25 1
  19    9   26 1
  20   10   11 1
  21   11   12 ar
  22   11   14 ar
  23   12   13 1
  24   12   17 ar
  25   13   27 1
  26   13   28 1
  27   14   15 ar
  28   15   16 ar
  29   15   18 1
  30   16   17 ar
  31   17   29 1
  32   18   30 1
  33   18   31 1
  34   18   32 1

#	End of record

