#	Name: ASD00172013
#	Creating user name:	WinNT
#	Creation time:	15. 06. 2019 18:33

#	Modifying user name:	WinNT
#	Modification time:	15. 06. 2019 18:33

#	Program:	/corina/corina34_cracker 3.40 0067  02.08.2006

@<TRIPOS>MOLECULE
ASD00172013
  42   44    0    0    0
SMALL
NO_CHARGES


@<TRIPOS>ATOM
   1 C1             0.0137     1.3169    -0.0564 C.2     
   2 C2             0.0203    -0.0175    -0.0749 C.2     
   3 C3            -1.3207    -0.5796     0.0029 C.2     
   4 C4            -2.3035     0.3715     0.0856 C.2     
   5 S5            -1.6293     1.9334     0.0625 S.3     
   6 N6            -3.6539     0.1001     0.1704 N.pl3   
   7 C7            -1.5917    -2.0168    -0.0070 C.2     
   8 C8            -1.8352    -2.7148    -1.2884 C.ar    
   9 O9            -1.6168    -2.6389     1.0395 O.2     
  10 C10           -1.9768    -4.1030    -1.3144 C.ar    
  11 C11           -2.2042    -4.7477    -2.5127 C.ar    
  12 C12           -2.2917    -4.0212    -3.6870 C.ar    
  13 C13           -2.1518    -2.6448    -3.6681 C.ar    
  14 C14           -1.9302    -1.9873    -2.4757 C.ar    
  15 C15           -2.5398    -4.7322    -4.9923 C.3     
  16 C16            1.2449     2.1959    -0.1330 C.3     
  17 C17            2.3053     1.6979     0.8475 C.3     
  18 C18            3.2001     0.6799     0.1460 C.3     
  19 C19            2.3835    -0.1127    -0.8723 C.3     
  20 C20            1.2723    -0.8740    -0.1559 C.3     
  21 C21            3.1525     2.8783     1.3270 C.3     
  22 H22           -3.9704    -0.8140     0.0987 H       
  23 H23           -4.2867     0.8235     0.3017 H       
  24 H24           -1.9080    -4.6713    -0.3986 H       
  25 H25           -2.3140    -5.8219    -2.5342 H       
  26 H26           -2.2207    -2.0835    -4.5882 H       
  27 H27           -1.8213    -0.9129    -2.4623 H       
  28 H28           -3.6130    -4.8029    -5.1692 H       
  29 H29           -2.0737    -4.1742    -5.8043 H       
  30 H30           -2.1122    -5.7339    -4.9475 H       
  31 H31            1.6471     2.1675    -1.1457 H       
  32 H32            0.9734     3.2213     0.1179 H       
  33 H33            1.8187     1.2273     1.7019 H       
  34 H34            4.0097     1.2007    -0.3652 H       
  35 H35            3.6197    -0.0033     0.8845 H       
  36 H36            1.9448     0.5723    -1.5979 H       
  37 H37            3.0337    -0.8194    -1.3880 H       
  38 H38            1.6009    -1.1300     0.8513 H       
  39 H39            1.0493    -1.7890    -0.7047 H       
  40 H40            2.5121     3.6070     1.8240 H       
  41 H41            3.9088     2.5223     2.0265 H       
  42 H42            3.6401     3.3465     0.4720 H       
@<TRIPOS>BOND
   1    1    2 2
   2    1   16 1
   3    1    5 1
   4    2    3 1
   5    2   20 1
   6    3    4 2
   7    3    7 1
   8    4    5 1
   9    4    6 1
  10    6   22 1
  11    6   23 1
  12    7    8 1
  13    7    9 2
  14    8   10 ar
  15    8   14 ar
  16   10   11 ar
  17   10   24 1
  18   11   12 ar
  19   11   25 1
  20   12   13 ar
  21   12   15 1
  22   13   14 ar
  23   13   26 1
  24   14   27 1
  25   15   28 1
  26   15   29 1
  27   15   30 1
  28   16   17 1
  29   16   31 1
  30   16   32 1
  31   17   18 1
  32   17   21 1
  33   17   33 1
  34   18   19 1
  35   18   34 1
  36   18   35 1
  37   19   20 1
  38   19   36 1
  39   19   37 1
  40   20   38 1
  41   20   39 1
  42   21   40 1
  43   21   41 1
  44   21   42 1

#	End of record

