#	Name: ASD00130001
#	Creating user name:	WinNT
#	Creation time:	15. 06. 2019 18:31

#	Modifying user name:	WinNT
#	Modification time:	15. 06. 2019 18:31

#	Program:	/corina/corina34_cracker 3.40 0067  02.08.2006

@<TRIPOS>MOLECULE
ASD00130001
  45   46    0    0    0
SMALL
NO_CHARGES


@<TRIPOS>ATOM
   1 C1            -0.0168     1.3903     0.0097 C.ar    
   2 C2             0.0021    -0.0041     0.0020 C.ar    
   3 C3            -1.1887    -0.7201     0.0095 C.ar    
   4 C4            -2.3977    -0.0478     0.0252 C.ar    
   5 C5            -2.4122     1.3566     0.0333 C.ar    
   6 C6            -1.2045     2.0638     0.0303 C.ar    
   7 O7            -3.5635    -0.7416     0.0321 O.3     
   8 C8            -3.4699    -2.1675     0.0226 C.3     
   9 N9             1.2173    -0.6805    -0.0137 N.pl3   
  10 Cl10           1.4772     2.2743     0.0002 Cl      
  11 C11           -3.6918     2.0814     0.0494 C.2     
  12 O12           -3.7029     3.4293     0.0572 O.3     
  13 C13           -5.0019     4.0778     0.0731 C.3     
  14 C14           -4.8139     5.5962     0.0800 C.3     
  15 C15           -6.1828     6.2795     0.0968 C.3     
  16 N16           -6.0023     7.7373     0.1034 N.3     
  17 C17           -7.2797     8.4267    -0.1188 C.3     
  18 C18           -7.0805     9.9359     0.0389 C.3     
  19 C19           -6.0369    10.4165    -0.9733 C.3     
  20 C20           -4.7309     9.6486    -0.7517 C.3     
  21 C21           -4.9982     8.1478    -0.8864 C.3     
  22 O22           -4.7394     1.4649     0.0558 O.2     
  23 H23           -1.1704    -1.7999     0.0029 H       
  24 H24           -1.2119     3.1438     0.0366 H       
  25 H25           -4.4715    -2.5974     0.0296 H       
  26 H26           -2.9419    -2.4910    -0.8744 H       
  27 H27           -2.9249    -2.5017     0.9054 H       
  28 H28            2.0496    -0.1824    -0.0193 H       
  29 H29            1.2325    -1.6504    -0.0190 H       
  30 H30           -5.5648     3.7854    -0.8133 H       
  31 H31           -5.5481     3.7752     0.9666 H       
  32 H32           -4.2510     5.8885     0.9664 H       
  33 H33           -4.2677     5.8987    -0.8134 H       
  34 H34           -6.7457     5.9871    -0.7896 H       
  35 H35           -6.7290     5.9769     0.9902 H       
  36 H36           -7.6386     8.2110    -1.1251 H       
  37 H37           -8.0116     8.0789     0.6102 H       
  38 H38           -8.0254    10.4485    -0.1414 H       
  39 H39           -6.7347    10.1537     1.0494 H       
  40 H40           -6.3996    10.2342    -1.9849 H       
  41 H41           -5.8601    11.4832    -0.8355 H       
  42 H42           -3.9971     9.9559    -1.4968 H       
  43 H43           -4.3481     9.8619     0.2464 H       
  44 H44           -4.0731     7.5973    -0.7151 H       
  45 H45           -5.3678     7.9333    -1.8891 H       
@<TRIPOS>BOND
   1    1    2 ar
   2    1   10 1
   3    1    6 ar
   4    2    3 ar
   5    2    9 1
   6    3    4 ar
   7    3   23 1
   8    4    5 ar
   9    4    7 1
  10    5    6 ar
  11    5   11 1
  12    6   24 1
  13    7    8 1
  14    8   25 1
  15    8   26 1
  16    8   27 1
  17    9   28 1
  18    9   29 1
  19   11   12 1
  20   11   22 2
  21   12   13 1
  22   13   14 1
  23   13   30 1
  24   13   31 1
  25   14   15 1
  26   14   32 1
  27   14   33 1
  28   15   16 1
  29   15   34 1
  30   15   35 1
  31   16   17 1
  32   16   21 1
  33   17   18 1
  34   17   36 1
  35   17   37 1
  36   18   19 1
  37   18   38 1
  38   18   39 1
  39   19   20 1
  40   19   40 1
  41   19   41 1
  42   20   21 1
  43   20   42 1
  44   20   43 1
  45   21   44 1
  46   21   45 1

#	End of record

