#	Name: ASD01940621
#	Creating user name:	WinNT
#	Creation time:	15. 06. 2019 20:12

#	Modifying user name:	WinNT
#	Modification time:	15. 06. 2019 20:12

#	Program:	/corina/corina34_cracker 3.40 0067  02.08.2006

@<TRIPOS>MOLECULE
ASD01940621
  46   48    0    0    0
SMALL
NO_CHARGES


@<TRIPOS>ATOM
   1 C1            -0.7091     1.3732     0.5318 C.ar    
   2 C2            -0.8971    -0.0175     0.5217 C.ar    
   3 C3             0.1503    -0.8558     0.8632 C.ar    
   4 C4             1.3820    -0.3270     1.2150 C.ar    
   5 C5             1.5794     1.0434     1.2291 C.ar    
   6 C6             0.5437     1.9008     0.8895 C.ar    
   7 N7             0.7434     3.2756     0.9032 N.pl3   
   8 C8             1.7587     3.8271     1.6920 C.ar    
   9 C9             2.2464     3.1275     2.7871 C.ar    
  10 C10            3.2492     3.6746     3.5646 C.ar    
  11 C11            3.7679     4.9182     3.2533 C.ar    
  12 C12            3.2850     5.6195     2.1625 C.ar    
  13 C13            2.2859     5.0756     1.3771 C.ar    
  14 F14            1.8181     5.7577     0.3089 F       
  15 I15            5.2878     5.7425     4.4363 I       
  16 F16            2.3971    -1.1543     1.5470 F       
  17 C17           -1.8132     2.2720     0.1649 C.2     
  18 O18           -2.5770     2.6780     1.0204 O.2     
  19 N19           -1.9793     2.6462    -1.1192 N.am    
  20 O20           -2.1016    -0.5387     0.1788 O.3     
  21 C21           -2.2097    -1.8905     0.0893 C.ar    
  22 C22           -2.4592    -2.6433     1.2267 C.ar    
  23 C23           -2.5690    -4.0245     1.1313 C.ar    
  24 C24           -2.4285    -4.6469    -0.1027 C.ar    
  25 C25           -2.1799    -3.8928    -1.2335 C.ar    
  26 C26           -2.0760    -2.5180    -1.1417 C.ar    
  27 N27           -2.8199    -4.7871     2.2749 N.am    
  28 S28           -3.7370    -6.1618     2.1687 S.o2    
  29 N29           -2.8470    -7.2816     1.3343 N.am    
  30 O30           -3.8686    -6.6598     3.4930 O.2     
  31 O31           -4.8496    -5.8394     1.3455 O.2     
  32 Br32          -2.6490    -1.7913     2.9041 Br      
  33 H33            0.0069    -1.9263     0.8558 H       
  34 H34            2.5428     1.4458     1.5054 H       
  35 H35            0.1789     3.8531     0.3658 H       
  36 H36            1.8421     2.1563     3.0317 H       
  37 H37            3.6283     3.1303     4.4168 H       
  38 H38            3.6919     6.5907     1.9222 H       
  39 H39           -1.3704     2.3224    -1.8013 H       
  40 H40           -2.7078     3.2392    -1.3613 H       
  41 H41           -2.5133    -5.7209    -0.1781 H       
  42 H42           -2.0710    -4.3786    -2.1919 H       
  43 H43           -1.8864    -1.9312    -2.0284 H       
  44 H44           -2.4569    -4.5112     3.1311 H       
  45 H45           -1.9593    -7.0555     1.0152 H       
  46 H46           -3.2133    -8.1636     1.1647 H       
@<TRIPOS>BOND
   1    1    2 ar
   2    1    6 ar
   3    1   17 1
   4    2    3 ar
   5    2   20 1
   6    3    4 ar
   7    3   33 1
   8    4    5 ar
   9    4   16 1
  10    5    6 ar
  11    5   34 1
  12    6    7 1
  13    7    8 1
  14    7   35 1
  15    8    9 ar
  16    8   13 ar
  17    9   10 ar
  18    9   36 1
  19   10   11 ar
  20   10   37 1
  21   11   12 ar
  22   11   15 1
  23   12   13 ar
  24   12   38 1
  25   13   14 1
  26   17   18 2
  27   17   19 am
  28   19   39 1
  29   19   40 1
  30   20   21 1
  31   21   22 ar
  32   21   26 ar
  33   22   23 ar
  34   22   32 1
  35   23   27 1
  36   23   24 ar
  37   24   25 ar
  38   24   41 1
  39   25   26 ar
  40   25   42 1
  41   26   43 1
  42   27   28 am
  43   27   44 1
  44   28   29 am
  45   28   30 2
  46   28   31 2
  47   29   45 1
  48   29   46 1

#	End of record

