#	Name: ASD02198156
#	Creating user name:	WinNT
#	Creation time:	15. 06. 2019 20:18

#	Modifying user name:	WinNT
#	Modification time:	15. 06. 2019 20:18

#	Program:	/corina/corina34_cracker 3.40 0067  02.08.2006

@<TRIPOS>MOLECULE
ASD02198156
  35   37    0    0    0
SMALL
NO_CHARGES


@<TRIPOS>ATOM
   1 C1            -0.0166     1.3754     0.0096 C.2     
   2 C2             0.0021    -0.0041     0.0020 C.2     
   3 C3            -1.1878    -0.8007     0.0087 C.1     
   4 S4             1.5674     2.0057    -0.0021 S.3     
   5 C5             2.2773     0.3993    -0.0175 C.2     
   6 C6             1.2821    -0.5521    -0.0131 C.2     
   7 C7             3.6563     0.1257    -0.0331 C.2     
   8 C8             4.6330     1.2405    -0.0370 C.ar    
   9 O9             4.0487    -1.0286    -0.0434 O.2     
  10 N10            1.5289    -1.9150    -0.0228 N.pl3   
  11 N11           -1.1592     2.1392     0.0194 N.pl3   
  12 N12           -2.1318    -1.4327     0.0139 N.1     
  13 C13            5.9981     0.9628    -0.0524 C.ar    
  14 C14            6.8990     2.0155    -0.0558 C.ar    
  15 C15            6.4035     3.3103    -0.0437 C.ar    
  16 C16            5.0334     3.5130    -0.0286 C.ar    
  17 N17            4.1997     2.4952    -0.0311 N.ar    
  18 C18           -1.0631     3.6010     0.0268 C.3     
  19 C19           -2.3406     4.2271    -0.5756 C.3     
  20 C20           -2.6646     5.3461     0.4403 C.3     
  21 O21           -2.0898     4.8756     1.6953 O.3     
  22 C22           -1.0116     4.1182     1.4481 C.2     
  23 O23           -0.1309     3.8835     2.2412 O.2     
  24 H24            2.4419    -2.2425    -0.0333 H       
  25 H25            0.7888    -2.5420    -0.0191 H       
  26 H26           -2.0293     1.7104     0.0213 H       
  27 H27            6.3492    -0.0585    -0.0612 H       
  28 H28            7.9632     1.8316    -0.0673 H       
  29 H29            7.0793     4.1527    -0.0456 H       
  30 H30            4.6440     4.5204    -0.0191 H       
  31 H31           -0.1832     3.9255    -0.5288 H       
  32 H32           -2.1402     4.6446    -1.5623 H       
  33 H33           -3.1480     3.4961    -0.6187 H       
  34 H34           -2.1985     6.2832     0.1359 H       
  35 H35           -3.7430     5.4705     0.5385 H       
@<TRIPOS>BOND
   1    1    2 2
   2    1    4 1
   3    1   11 1
   4    2    3 1
   5    2    6 1
   6    3   12 3
   7    4    5 1
   8    5    6 2
   9    5    7 1
  10    6   10 1
  11    7    8 1
  12    7    9 2
  13    8   13 ar
  14    8   17 ar
  15   10   24 1
  16   10   25 1
  17   11   18 1
  18   11   26 1
  19   13   14 ar
  20   13   27 1
  21   14   15 ar
  22   14   28 1
  23   15   16 ar
  24   15   29 1
  25   16   17 ar
  26   16   30 1
  27   18   19 1
  28   18   22 1
  29   18   31 1
  30   19   20 1
  31   19   32 1
  32   19   33 1
  33   20   21 1
  34   20   34 1
  35   20   35 1
  36   21   22 1
  37   22   23 2

#	End of record

