#	Name: ASD01148102
#	Creating user name:	WinNT
#	Creation time:	15. 06. 2019 19:02

#	Modifying user name:	WinNT
#	Modification time:	15. 06. 2019 19:02

#	Program:	/corina/corina34_cracker 3.40 0067  02.08.2006

@<TRIPOS>MOLECULE
ASD01148102
  41   42    0    0    0
SMALL
NO_CHARGES


@<TRIPOS>ATOM
   1 C1            -0.0166     1.3749     0.0096 C.ar    
   2 C2             0.0021    -0.0041     0.0020 C.ar    
   3 C3             1.1753     2.0867     0.0020 C.ar    
   4 C4             2.3892     1.4132    -0.0136 C.ar    
   5 C5             2.4142     0.0343    -0.0217 C.ar    
   6 C6             1.2192    -0.6830    -0.0132 C.ar    
   7 C7             1.2427    -2.1664    -0.0219 C.ar    
   8 C8             0.0483    -2.8844    -0.0134 C.ar    
   9 C9             2.4590    -2.8459    -0.0442 C.ar    
  10 C10            2.4770    -4.2261    -0.0522 C.ar    
  11 C11            1.2897    -4.9364    -0.0385 C.ar    
  12 C12            0.0759    -4.2659    -0.0215 C.ar    
  13 Cl13           1.3195    -6.6721    -0.0497 Cl      
  14 C14           -1.3322     2.1098     0.0198 C.3     
  15 C15           -2.1351     1.7356    -1.2277 C.3     
  16 C16           -2.1233     1.7221     1.2707 C.3     
  17 C17            3.6807     2.1895    -0.0223 C.3     
  18 C18            4.5018     1.8274     1.2170 C.3     
  19 C19            4.4770     1.8408    -1.2813 C.3     
  20 O20            1.1537     3.4452     0.0095 O.3     
  21 F21           -1.0806    -4.9641    -0.0082 F       
  22 H22           -0.9255    -0.5573     0.0082 H       
  23 H23            3.3588    -0.4891    -0.0346 H       
  24 H24           -0.8969    -2.3621    -0.0003 H       
  25 H25            3.3868    -2.2931    -0.0557 H       
  26 H26            3.4198    -4.7526    -0.0695 H       
  27 H27           -1.1482     3.1841     0.0248 H       
  28 H28           -2.3191     0.6613    -1.2327 H       
  29 H29           -3.0867     2.2672    -1.2203 H       
  30 H30           -1.5715     2.0119    -2.1189 H       
  31 H31           -1.5513     1.9886     2.1595 H       
  32 H32           -3.0749     2.2536     1.2781 H       
  33 H33           -2.3073     0.6477     1.2657 H       
  34 H34            3.4628     3.2575    -0.0144 H       
  35 H35            5.4360     2.3890     1.2107 H       
  36 H36            3.9345     2.0759     2.1140 H       
  37 H37            4.7197     0.7595     1.2091 H       
  38 H38            3.8921     2.0988    -2.1642 H       
  39 H39            5.4112     2.4023    -1.2876 H       
  40 H40            4.6949     0.7728    -1.2892 H       
  41 H41            1.1559     3.8338     0.8950 H       
@<TRIPOS>BOND
   1    1    2 ar
   2    1    3 ar
   3    1   14 1
   4    2    6 ar
   5    2   22 1
   6    3    4 ar
   7    3   20 1
   8    4    5 ar
   9    4   17 1
  10    5    6 ar
  11    5   23 1
  12    6    7 1
  13    7    8 ar
  14    7    9 ar
  15    8   12 ar
  16    8   24 1
  17    9   10 ar
  18    9   25 1
  19   10   11 ar
  20   10   26 1
  21   11   12 ar
  22   11   13 1
  23   12   21 1
  24   14   15 1
  25   14   16 1
  26   14   27 1
  27   15   28 1
  28   15   29 1
  29   15   30 1
  30   16   31 1
  31   16   32 1
  32   16   33 1
  33   17   18 1
  34   17   19 1
  35   17   34 1
  36   18   35 1
  37   18   36 1
  38   18   37 1
  39   19   38 1
  40   19   39 1
  41   19   40 1
  42   20   41 1

#	End of record

