#	Name: ASD01900645
#	Creating user name:	WinNT
#	Creation time:	15. 06. 2019 19:52

#	Modifying user name:	WinNT
#	Modification time:	15. 06. 2019 19:52

#	Program:	/corina/corina34_cracker 3.40 0067  02.08.2006

@<TRIPOS>MOLECULE
ASD01900645
  45   49    0    0    0
SMALL
NO_CHARGES


@<TRIPOS>ATOM
   1 C1            -0.0186     1.4182     0.1362 C.ar    
   2 C2            -0.0086     0.0184     0.1254 C.ar    
   3 C3             1.2004    -0.6775     0.0650 C.ar    
   4 C4             2.3945     0.0228     0.0150 C.ar    
   5 C5             2.3660     1.4260     0.0307 C.ar    
   6 O6             3.5723    -0.6340    -0.0554 O.3     
   7 C7             4.7414    -0.0179     0.1912 C.2     
   8 C8             4.8674     1.3295     0.2218 C.2     
   9 C9             3.6622     2.1484    -0.0102 C.2     
  10 C10            5.9384    -0.8459     0.4396 C.ar    
  11 N11            7.1076    -0.2479     0.6861 N.ar    
  12 C12            8.2093    -0.9178     0.9150 C.ar    
  13 C13            8.1979    -2.3237     0.9086 C.ar    
  14 C14            6.9748    -2.9982     0.6506 C.ar    
  15 C15            5.8245    -2.2272     0.4176 C.ar    
  16 C16            9.3582    -3.0748     1.1490 C.ar    
  17 C17            9.2941    -4.4356     1.1313 C.ar    
  18 C18            8.0938    -5.0966     0.8777 C.ar    
  19 C19            6.9466    -4.4012     0.6403 C.ar    
  20 C20            1.1580     2.1127     0.0892 C.ar    
  21 C21           -1.2443    -0.7033     0.1769 C.1     
  22 C22           -2.2574    -1.2950     0.2191 C.1     
  23 C23           -3.4931    -2.0168     0.2707 C.ar    
  24 C24           -3.5102    -3.4185     0.2611 C.ar    
  25 C25           -4.7199    -1.3418     0.3380 C.ar    
  26 C26           -5.8851    -2.0773     0.3859 C.ar    
  27 N27           -5.8555    -3.3965     0.3691 N.ar    
  28 C28           -4.7232    -4.0720     0.3120 C.ar    
  29 N29            3.7319     3.4376    -0.2393 N.2     
  30 O30            2.5672     4.1561    -0.6031 O.3     
  31 H31           -0.9575     1.9504     0.1772 H       
  32 H32            1.2046    -1.7575     0.0577 H       
  33 H33            5.8244     1.7927     0.4113 H       
  34 H34            9.1304    -0.3882     1.1090 H       
  35 H35            4.8742    -2.6997     0.2175 H       
  36 H36           10.2963    -2.5775     1.3464 H       
  37 H37           10.1886    -5.0117     1.3166 H       
  38 H38            8.0726    -6.1763     0.8692 H       
  39 H39            6.0229    -4.9255     0.4451 H       
  40 H40            1.1495     3.1926     0.0973 H       
  41 H41           -2.5875    -3.9778     0.2141 H       
  42 H42           -4.7518    -0.2623     0.3525 H       
  43 H43           -6.8353    -1.5667     0.4382 H       
  44 H44           -4.7472    -5.1516     0.3000 H       
  45 H45            2.7175     5.0998    -0.7513 H       
@<TRIPOS>BOND
   1    1    2 ar
   2    1   20 ar
   3    1   31 1
   4    2    3 ar
   5    2   21 1
   6    3    4 ar
   7    3   32 1
   8    4    5 ar
   9    4    6 1
  10    5   20 ar
  11    5    9 1
  12    6    7 1
  13    7    8 2
  14    7   10 1
  15    8    9 1
  16    8   33 1
  17    9   29 2
  18   10   11 ar
  19   10   15 ar
  20   11   12 ar
  21   12   13 ar
  22   12   34 1
  23   13   14 ar
  24   13   16 ar
  25   14   15 ar
  26   14   19 ar
  27   15   35 1
  28   16   17 ar
  29   16   36 1
  30   17   18 ar
  31   17   37 1
  32   18   19 ar
  33   18   38 1
  34   19   39 1
  35   20   40 1
  36   21   22 3
  37   22   23 1
  38   23   24 ar
  39   23   25 ar
  40   24   28 ar
  41   24   41 1
  42   25   26 ar
  43   25   42 1
  44   26   27 ar
  45   26   43 1
  46   27   28 ar
  47   28   44 1
  48   29   30 1
  49   30   45 1

#	End of record

