#	Name: ASD01910214
#	Creating user name:	WinNT
#	Creation time:	15. 06. 2019 19:55

#	Modifying user name:	WinNT
#	Modification time:	15. 06. 2019 19:55

#	Program:	/corina/corina34_cracker 3.40 0067  02.08.2006

@<TRIPOS>MOLECULE
ASD01910214
  40   41    0    0    0
SMALL
NO_CHARGES


@<TRIPOS>ATOM
   1 N1            -0.0169     1.3965     0.0097 N.2     
   2 N2             0.0021    -0.0041     0.0020 N.pl3   
   3 C3             1.2284     1.8226     0.0001 C.2     
   4 C4             2.0722     0.6950    -0.0140 C.2     
   5 C5             1.2909    -0.4070    -0.0125 C.2     
   6 C6             1.7727    -1.8348    -0.0243 C.3     
   7 C7             1.6660     3.2408     0.0031 C.ar    
   8 C8             3.0473    -1.9360    -0.8645 C.3     
   9 C9             3.0183     3.5547    -0.1136 C.ar    
  10 C10            2.0688    -2.2850     1.4077 C.3     
  11 C11            3.4209     4.8747    -0.1109 C.ar    
  12 C12            2.4826     5.8868     0.0082 C.ar    
  13 C13            1.1366     5.5790     0.1246 C.ar    
  14 C14            0.7250     4.2622     0.1169 C.ar    
  15 C15           -1.1724    -0.8798     0.0085 C.3     
  16 C16           -1.5883    -1.1729    -1.4100 C.2     
  17 O17           -2.6485    -1.9605    -1.6494 O.3     
  18 O18           -0.9674    -0.6990    -2.3318 O.2     
  19 C19           -2.9915    -2.1996    -3.0399 C.3     
  20 F20            2.8810     7.1777     0.0114 F       
  21 C21            0.1205     6.6842     0.2543 C.3     
  22 H22            3.1521     0.7089    -0.0249 H       
  23 H23            1.0022    -2.4747    -0.4544 H       
  24 H24            3.3958    -2.9687    -0.8731 H       
  25 H25            2.8364    -1.6153    -1.8847 H       
  26 H26            3.8178    -1.2961    -0.4344 H       
  27 H27            3.7505     2.7662    -0.2058 H       
  28 H28            1.1607    -2.2130     2.0063 H       
  29 H29            2.4173    -3.3178     1.3991 H       
  30 H30            2.8392    -1.6451     1.8378 H       
  31 H31            4.4690     5.1190    -0.2013 H       
  32 H32           -0.3243     4.0231     0.2077 H       
  33 H33           -0.9269    -1.8130     0.5154 H       
  34 H34           -1.9908    -0.3861     0.5325 H       
  35 H35           -3.2156    -1.2507    -3.5272 H       
  36 H36           -2.1517    -2.6776    -3.5442 H       
  37 H37           -3.8646    -2.8500    -3.0921 H       
  38 H38           -0.2203     6.9828    -0.7371 H       
  39 H39           -0.7286     6.3304     0.8390 H       
  40 H40            0.5753     7.5390     0.7549 H       
@<TRIPOS>BOND
   1    1    2 1
   2    1    3 2
   3    2   15 1
   4    2    5 1
   5    3    4 1
   6    3    7 1
   7    4    5 2
   8    4   22 1
   9    5    6 1
  10    6    8 1
  11    6   10 1
  12    6   23 1
  13    7    9 ar
  14    7   14 ar
  15    8   24 1
  16    8   25 1
  17    8   26 1
  18    9   11 ar
  19    9   27 1
  20   10   28 1
  21   10   29 1
  22   10   30 1
  23   11   12 ar
  24   11   31 1
  25   12   13 ar
  26   12   20 1
  27   13   14 ar
  28   13   21 1
  29   14   32 1
  30   15   16 1
  31   15   33 1
  32   15   34 1
  33   16   17 1
  34   16   18 2
  35   17   19 1
  36   19   35 1
  37   19   36 1
  38   19   37 1
  39   21   38 1
  40   21   39 1
  41   21   40 1

#	End of record

