#	Name: ASD03092059
#	Creating user name:	WinNT
#	Creation time:	15. 06. 2019 20:31

#	Modifying user name:	WinNT
#	Modification time:	15. 06. 2019 20:31

#	Program:	/corina/corina34_cracker 3.40 0067  02.08.2006

@<TRIPOS>MOLECULE
ASD03092059
  54   57    0    0    0
SMALL
NO_CHARGES


@<TRIPOS>ATOM
   1 N1             0.1344     1.3467     0.0413 N.am    
   2 C2            -0.0029    -0.0162    -0.0103 C.2     
   3 C3            -1.3379    -0.2893    -0.0519 C.2     
   4 C4            -2.0278     0.9334    -0.0251 C.2     
   5 N5            -1.1496     1.9064     0.0357 N.2     
   6 N6            -3.4164     1.0879    -0.0532 N.pl3   
   7 C7            -3.9814     2.3566     0.0977 C.ar    
   8 C8            -5.2375     2.6264    -0.4314 C.ar    
   9 C9            -5.7959     3.8811    -0.2820 C.ar    
  10 C10           -5.1076     4.8707     0.3935 C.ar    
  11 C11           -3.2909     3.3483     0.7817 C.ar    
  12 C12            1.0945    -1.0073    -0.0191 C.ar    
  13 C13            1.2969     2.0265     0.0940 C.2     
  14 C14            0.9734    -2.2206     0.6677 C.ar    
  15 C15            2.0219    -3.1164     0.6327 C.ar    
  16 N16            3.1258    -2.8415    -0.0355 N.ar    
  17 C17            3.2811    -1.7099    -0.6962 C.ar    
  18 C18            2.2812    -0.7604    -0.7195 C.ar    
  19 C19            4.5662    -1.4543    -1.4408 C.3     
  20 N20            1.2941     3.3726     0.0265 N.am    
  21 O21            2.3476     1.4258     0.2022 O.2     
  22 C22            2.5578     4.1115     0.0837 C.3     
  23 C23            2.2759     5.6123    -0.0122 C.3     
  24 C24           -3.8523     4.6071     0.9244 C.ar    
  25 C25            3.4620     6.5655     0.1472 C.3     
  26 C26            2.8268     6.3582    -1.2292 C.3     
  27 C27           -7.1582     4.1713    -0.8572 C.3     
  28 F28           -8.1392     3.8775     0.0960 F       
  29 F29           -7.2383     5.5235    -1.2071 F       
  30 F30           -7.3619     3.3825    -1.9945 F       
  31 O31           -3.1765     5.5816     1.5880 O.3     
  32 C32           -1.8899     5.2402     2.1079 C.3     
  33 H33           -1.7852    -1.2712    -0.0980 H       
  34 H34           -3.9881     0.3141    -0.1776 H       
  35 H35           -5.7775     1.8548    -0.9601 H       
  36 H36           -5.5467     5.8507     0.5084 H       
  37 H37           -2.3163     3.1401     1.1979 H       
  38 H38            0.0728    -2.4521     1.2170 H       
  39 H39            1.9382    -4.0553     1.1598 H       
  40 H40            2.4151     0.1635    -1.2626 H       
  41 H41            4.4758    -1.8284    -2.4606 H       
  42 H42            4.7663    -0.3831    -1.4631 H       
  43 H43            5.3859    -1.9666    -0.9372 H       
  44 H44            0.4554     3.8521    -0.0599 H       
  45 H45            3.0623     3.8961     1.0256 H       
  46 H46            3.1944     3.8076    -0.7472 H       
  47 H47            1.3133     5.9360     0.3835 H       
  48 H48            3.2796     7.5166     0.6476 H       
  49 H49            4.4431     6.1235     0.3205 H       
  50 H50            3.3902     5.7798    -1.9614 H       
  51 H51            2.2266     7.1728    -1.6344 H       
  52 H52           -1.9910     4.4188     2.8173 H       
  53 H53           -1.2367     4.9357     1.2901 H       
  54 H54           -1.4607     6.1055     2.6128 H       
@<TRIPOS>BOND
   1    1    2 1
   2    1   13 am
   3    1    5 1
   4    2    3 2
   5    2   12 1
   6    3    4 1
   7    3   33 1
   8    4    5 2
   9    4    6 1
  10    6    7 1
  11    6   34 1
  12    7    8 ar
  13    7   11 ar
  14    8    9 ar
  15    8   35 1
  16    9   10 ar
  17    9   27 1
  18   10   24 ar
  19   10   36 1
  20   11   24 ar
  21   11   37 1
  22   12   14 ar
  23   12   18 ar
  24   13   20 am
  25   13   21 2
  26   14   15 ar
  27   14   38 1
  28   15   16 ar
  29   15   39 1
  30   16   17 ar
  31   17   18 ar
  32   17   19 1
  33   18   40 1
  34   19   41 1
  35   19   42 1
  36   19   43 1
  37   20   22 1
  38   20   44 1
  39   22   23 1
  40   22   45 1
  41   22   46 1
  42   23   25 1
  43   23   26 1
  44   23   47 1
  45   24   31 1
  46   25   26 1
  47   25   48 1
  48   25   49 1
  49   26   50 1
  50   26   51 1
  51   27   28 1
  52   27   29 1
  53   27   30 1
  54   31   32 1
  55   32   52 1
  56   32   53 1
  57   32   54 1

#	End of record

