#	Name: ASD01882228
#	Creating user name:	WinNT
#	Creation time:	15. 06. 2019 19:44

#	Modifying user name:	WinNT
#	Modification time:	15. 06. 2019 19:44

#	Program:	/corina/corina34_cracker 3.40 0067  02.08.2006

@<TRIPOS>MOLECULE
ASD01882228
  45   48    0    0    0
SMALL
NO_CHARGES


@<TRIPOS>ATOM
   1 C1            -0.0159     1.3220     0.0093 C.2     
   2 N2             0.0021    -0.0041     0.0020 N.2     
   3 C3             1.1523    -0.6857    -0.0126 C.2     
   4 C4             2.3835     0.0173    -0.0206 C.2     
   5 C5             2.3523     1.3664    -0.0131 C.2     
   6 N6             1.1484     2.0132     0.0019 N.pl3   
   7 O7            -1.0993     2.1290     0.0184 O.3     
   8 C8             0.8540     3.4562     0.0125 C.3     
   9 C9            -0.6831     3.5211     0.0242 C.3     
  10 O10            1.1423    -1.9071    -0.0187 O.2     
  11 C11           -1.1944     4.2379    -1.2270 C.3     
  12 O12           -2.6209     4.3119    -1.1842 O.3     
  13 C13           -2.4958     5.4447    -3.2785 C.ar    
  14 C14           -3.2386     4.9234    -2.2290 C.ar    
  15 C15           -4.6247     5.0352    -2.2616 C.ar    
  16 C16           -5.2091     5.6667    -3.3480 C.ar    
  17 C17           -4.4023     6.1608    -4.3555 C.ar    
  18 N18           -3.0907     6.0383    -4.2940 N.ar    
  19 C19           -5.0299     6.8483    -5.5406 C.3     
  20 C20           -5.4414     5.8020    -6.5783 C.3     
  21 C21           -6.0785     6.5001    -7.7815 C.3     
  22 C22           -7.3140     7.2782    -7.3243 C.3     
  23 C23           -6.9025     8.3245    -6.2866 C.3     
  24 C24           -6.2654     7.6265    -5.0834 C.3     
  25 H25            3.3237    -0.5140    -0.0321 H       
  26 H26            3.2727     1.9314    -0.0185 H       
  27 H27            1.2651     3.9237     0.9072 H       
  28 H28            1.2480     3.9334    -0.8848 H       
  29 H29           -1.0396     4.0220     0.9243 H       
  30 H30           -0.7793     5.2451    -1.2639 H       
  31 H31           -0.8857     3.6850    -2.1142 H       
  32 H32           -1.4187     5.3673    -3.2611 H       
  33 H33           -5.2307     4.6393    -1.4601 H       
  34 H34           -6.2824     5.7711    -3.4068 H       
  35 H35           -4.3105     7.5367    -5.9842 H       
  36 H36           -4.5612     5.2476    -6.9040 H       
  37 H37           -6.1607     5.1136    -6.1347 H       
  38 H38           -5.3592     7.1884    -8.2251 H       
  39 H39           -6.3717     5.7546    -8.5208 H       
  40 H40           -7.7679     7.7755    -8.1814 H       
  41 H41           -8.0333     6.5898    -6.8807 H       
  42 H42           -6.1832     9.0129    -6.7302 H       
  43 H43           -7.7827     8.8789    -5.9609 H       
  44 H44           -6.9847     6.9381    -4.6398 H       
  45 H45           -5.9722     8.3719    -4.3441 H       
@<TRIPOS>BOND
   1    1    2 2
   2    1    6 1
   3    1    7 1
   4    2    3 1
   5    3    4 1
   6    3   10 2
   7    4    5 2
   8    4   25 1
   9    5    6 1
  10    5   26 1
  11    6    8 1
  12    7    9 1
  13    8    9 1
  14    8   27 1
  15    8   28 1
  16    9   11 1
  17    9   29 1
  18   11   12 1
  19   11   30 1
  20   11   31 1
  21   12   14 1
  22   13   14 ar
  23   13   18 ar
  24   13   32 1
  25   14   15 ar
  26   15   16 ar
  27   15   33 1
  28   16   17 ar
  29   16   34 1
  30   17   18 ar
  31   17   19 1
  32   19   20 1
  33   19   24 1
  34   19   35 1
  35   20   21 1
  36   20   36 1
  37   20   37 1
  38   21   22 1
  39   21   38 1
  40   21   39 1
  41   22   23 1
  42   22   40 1
  43   22   41 1
  44   23   24 1
  45   23   42 1
  46   23   43 1
  47   24   44 1
  48   24   45 1

#	End of record

