#	Name: ASD05720005
#	Creating user name:	WinNT
#	Creation time:	15. 06. 2019 21:01

#	Modifying user name:	WinNT
#	Modification time:	15. 06. 2019 21:01

#	Program:	/corina/corina34_cracker 3.40 0067  02.08.2006

@<TRIPOS>MOLECULE
ASD05720005
  28   28    0    0    0
SMALL
NO_CHARGES


@<TRIPOS>ATOM
   1 C1            -0.0180     1.4755     0.0102 C.2     
   2 C2             0.0021    -0.0041     0.0020 C.ar    
   3 C3             1.2187    -0.6882    -0.0133 C.ar    
   4 C4             1.2311    -2.0671    -0.0203 C.ar    
   5 C5             0.0396    -2.7731    -0.0127 C.ar    
   6 C6            -1.1702    -2.1000     0.0025 C.ar    
   7 C7            -1.1952    -0.7209     0.0154 C.ar    
   8 O8             1.0278     2.0984     0.0035 O.2     
   9 N9            -1.1929     2.1327     0.0193 N.2     
  10 C10            2.5437    -2.8073    -0.0368 C.3     
  11 C11           -1.2107     3.4444     0.0265 C.2     
  12 N12           -2.3891     4.1036     0.0357 N.pl3   
  13 C13           -3.6478     3.3539     0.0376 C.3     
  14 C14           -2.4090     5.5684     0.0437 C.3     
  15 Br15           0.0653    -4.6639    -0.0237 Br      
  16 H16            2.1484    -0.1387    -0.0199 H       
  17 H17           -2.0962    -2.6559     0.0080 H       
  18 H18           -2.1394    -0.1970     0.0318 H       
  19 H19            2.8702    -2.9909     0.9868 H       
  20 H20            2.4181    -3.7584    -0.5542 H       
  21 H21            3.2923    -2.2079    -0.5550 H       
  22 H22           -0.2828     3.9970     0.0251 H       
  23 H23           -3.9550     3.1624     1.0657 H       
  24 H24           -4.4178     3.9354    -0.4695 H       
  25 H25           -3.5070     2.4062    -0.4821 H       
  26 H26           -2.4188     5.9373    -0.9819 H       
  27 H27           -3.3014     5.9168     0.5637 H       
  28 H28           -1.5216     5.9410     0.5554 H       
@<TRIPOS>BOND
   1    1    2 1
   2    1    8 2
   3    1    9 1
   4    2    3 ar
   5    2    7 ar
   6    3    4 ar
   7    3   16 1
   8    4    5 ar
   9    4   10 1
  10    5    6 ar
  11    5   15 1
  12    6    7 ar
  13    6   17 1
  14    7   18 1
  15    9   11 2
  16   10   19 1
  17   10   20 1
  18   10   21 1
  19   11   12 1
  20   11   22 1
  21   12   13 1
  22   12   14 1
  23   13   23 1
  24   13   24 1
  25   13   25 1
  26   14   26 1
  27   14   27 1
  28   14   28 1

#	End of record

