#	Name: ASD03082360
#	Creating user name:	WinNT
#	Creation time:	15. 06. 2019 20:27

#	Modifying user name:	WinNT
#	Modification time:	15. 06. 2019 20:27

#	Program:	/corina/corina34_cracker 3.40 0067  02.08.2006

@<TRIPOS>MOLECULE
ASD03082360
  49   51    0    0    0
SMALL
NO_CHARGES


@<TRIPOS>ATOM
   1 C1            -4.1136    -1.1439     0.1599 C.ar    
   2 C2            -3.0827    -0.5761     0.8969 C.ar    
   3 C3            -3.3335     0.5264     1.7040 C.ar    
   4 C4            -4.6072     1.0565     1.7724 C.ar    
   5 C5            -5.6347     0.4900     1.0380 C.ar    
   6 C6            -5.3877    -0.6103     0.2310 C.ar    
   7 F7            -6.3917    -1.1615    -0.4854 F       
   8 F8            -6.8798     1.0098     1.1074 F       
   9 N9            -1.7938    -1.1138     0.8272 N.pl3   
  10 C10           -1.6165    -2.4694     0.5309 C.2     
  11 C11           -0.3850    -3.1121     0.3173 C.2     
  12 N12           -2.5712    -3.3619     0.4099 N.2     
  13 N13           -1.9808    -4.5965     0.1104 N.pl3   
  14 C14           -0.6352    -4.4152     0.0593 C.2     
  15 C15           -2.6566    -5.8030    -0.0949 C.ar    
  16 C16           -2.1830    -6.9907     0.4589 C.ar    
  17 C17           -3.8246    -5.8480    -0.8542 C.ar    
  18 C18           -4.4617    -7.0585    -1.0334 C.ar    
  19 N19           -3.9785    -8.1631    -0.4967 N.ar    
  20 C20           -2.8791    -8.1606     0.2327 C.ar    
  21 C21           -5.7256    -7.1201    -1.8518 C.3     
  22 H22           -2.5166    -9.0867     0.6539 H       
  23 C23            0.3938    -5.4767    -0.2332 C.3     
  24 C24            0.9953    -5.9796     1.0806 C.3     
  25 C25            1.9274    -7.1297     0.7986 C.2     
  26 N26            2.5757    -7.7360     1.8127 N.am    
  27 O27            2.0941    -7.5097    -0.3411 O.2     
  28 C28            3.4818    -8.8541     1.5385 C.3     
  29 C29            2.3743    -7.2770     3.1893 C.3     
  30 H30           -3.9197    -1.9983    -0.4716 H       
  31 H31           -2.5329     0.9688     2.2780 H       
  32 H32           -4.8017     1.9136     2.4000 H       
  33 H33           -1.0226    -0.5469     0.9843 H       
  34 H34            0.5891    -2.6470     0.3527 H       
  35 H35           -1.2836    -6.9956     1.0567 H       
  36 H36           -4.2255    -4.9477    -1.2958 H       
  37 H37           -5.4734    -7.3026    -2.8964 H       
  38 H38           -6.3576    -7.9285    -1.4840 H       
  39 H39           -6.2598    -6.1739    -1.7669 H       
  40 H40           -0.0795    -6.3069    -0.7574 H       
  41 H41            1.1828    -5.0559    -0.8565 H       
  42 H42            1.5492    -5.1720     1.5593 H       
  43 H43            0.1958    -6.3136     1.7419 H       
  44 H44            4.4879    -8.4723     1.3651 H       
  45 H45            3.4923    -9.5311     2.3927 H       
  46 H46            3.1393    -9.3908     0.6538 H       
  47 H47            1.6720    -6.4434     3.1953 H       
  48 H48            1.9739    -8.0938     3.7898 H       
  49 H49            3.3272    -6.9522     3.6071 H       
@<TRIPOS>BOND
   1    1    2 ar
   2    1    6 ar
   3    1   30 1
   4    2    3 ar
   5    2    9 1
   6    3    4 ar
   7    3   31 1
   8    4    5 ar
   9    4   32 1
  10    5    6 ar
  11    5    8 1
  12    6    7 1
  13    9   10 1
  14    9   33 1
  15   10   11 1
  16   10   12 2
  17   11   14 2
  18   11   34 1
  19   12   13 1
  20   13   14 1
  21   13   15 1
  22   14   23 1
  23   15   16 ar
  24   15   17 ar
  25   16   20 ar
  26   16   35 1
  27   17   18 ar
  28   17   36 1
  29   18   19 ar
  30   18   21 1
  31   19   20 ar
  32   20   22 1
  33   21   37 1
  34   21   38 1
  35   21   39 1
  36   23   24 1
  37   23   40 1
  38   23   41 1
  39   24   25 1
  40   24   42 1
  41   24   43 1
  42   25   26 am
  43   25   27 2
  44   26   28 1
  45   26   29 1
  46   28   44 1
  47   28   45 1
  48   28   46 1
  49   29   47 1
  50   29   48 1
  51   29   49 1

#	End of record

