#	Name: ASD01810496
#	Creating user name:	WinNT
#	Creation time:	15. 06. 2019 19:24

#	Modifying user name:	WinNT
#	Modification time:	15. 06. 2019 19:24

#	Program:	/corina/corina34_cracker 3.40 0067  02.08.2006

@<TRIPOS>MOLECULE
ASD01810496
  46   49    0    0    0
SMALL
NO_CHARGES


@<TRIPOS>ATOM
   1 C1            -1.6296     0.7428    -0.7163 C.ar    
   2 C2            -1.1531    -0.5442    -0.5123 C.ar    
   3 C3             0.2010    -0.7968    -0.4808 C.ar    
   4 C4             1.1073     0.2457    -0.6547 C.ar    
   5 C5             0.6222     1.5484    -0.8611 C.ar    
   6 C6            -0.7510     1.7894    -0.8907 C.ar    
   7 N7             2.4642     0.0060    -0.6247 N.pl3   
   8 C8             3.3758     0.9735    -0.7862 C.2     
   9 C9             3.0211     2.2910    -0.9954 C.2     
  10 C10            1.5930     2.6436    -1.0440 C.2     
  11 O11            1.2281     3.7918    -1.2264 O.2     
  12 C12            4.0522     3.3242    -1.1672 C.2     
  13 O13            3.6932     4.6075    -1.3710 O.3     
  14 O14            5.2289     3.0215    -1.1256 O.2     
  15 C15            2.9291    -1.3660    -0.4065 C.3     
  16 C16            3.0795    -2.0626    -1.7343 C.ar    
  17 C17            4.2865    -2.0061    -2.4089 C.ar    
  18 C18            4.4312    -2.6413    -3.6245 C.ar    
  19 C19            3.3559    -3.3429    -4.1745 C.ar    
  20 C20            2.1405    -3.3958    -3.4881 C.ar    
  21 C21            2.0117    -2.7607    -2.2706 C.ar    
  22 C22            3.5032    -4.0255    -5.4765 C.2     
  23 C23            4.5486    -3.5894    -6.4252 C.ar    
  24 O24            2.7644    -4.9459    -5.7673 O.2     
  25 C25            5.0171    -4.4674    -7.4053 C.ar    
  26 C26            5.9931    -4.0535    -8.2876 C.ar    
  27 C27            6.5081    -2.7718    -8.2034 C.ar    
  28 C28            6.0489    -1.8968    -7.2345 C.ar    
  29 C29            5.0688    -2.2952    -6.3497 C.ar    
  30 H30           -2.6939     0.9241    -0.7429 H       
  31 H31           -1.8513    -1.3569    -0.3765 H       
  32 H32            0.5592    -1.8031    -0.3209 H       
  33 H33           -1.1235     2.7906    -1.0497 H       
  34 H34            4.4237     0.7144    -0.7511 H       
  35 H35            4.4067     5.2512    -1.4785 H       
  36 H36            3.8916    -1.3465     0.1047 H       
  37 H37            2.2037    -1.9025     0.2052 H       
  38 H38            5.1170    -1.4629    -1.9826 H       
  39 H39            5.3737    -2.5961    -4.1501 H       
  40 H40            1.3050    -3.9366    -3.9077 H       
  41 H41            1.0725    -2.8007    -1.7388 H       
  42 H42            4.6163    -5.4680    -7.4719 H       
  43 H43            6.3566    -4.7314    -9.0457 H       
  44 H44            7.2723    -2.4530    -8.8968 H       
  45 H45            6.4555    -0.8981    -7.1743 H       
  46 H46            4.7110    -1.6113    -5.5943 H       
@<TRIPOS>BOND
   1    1    2 ar
   2    1    6 ar
   3    1   30 1
   4    2    3 ar
   5    2   31 1
   6    3    4 ar
   7    3   32 1
   8    4    5 ar
   9    4    7 1
  10    5    6 ar
  11    5   10 1
  12    6   33 1
  13    7    8 1
  14    7   15 1
  15    8    9 2
  16    8   34 1
  17    9   10 1
  18    9   12 1
  19   10   11 2
  20   12   13 1
  21   12   14 2
  22   13   35 1
  23   15   16 1
  24   15   36 1
  25   15   37 1
  26   16   17 ar
  27   16   21 ar
  28   17   18 ar
  29   17   38 1
  30   18   19 ar
  31   18   39 1
  32   19   20 ar
  33   19   22 1
  34   20   21 ar
  35   20   40 1
  36   21   41 1
  37   22   23 1
  38   22   24 2
  39   23   25 ar
  40   23   29 ar
  41   25   26 ar
  42   25   42 1
  43   26   27 ar
  44   26   43 1
  45   27   28 ar
  46   27   44 1
  47   28   29 ar
  48   28   45 1
  49   29   46 1

#	End of record

