#	Name: ASD09740644
#	Creating user name:	WinNT
#	Creation time:	15. 06. 2019 21:23

#	Modifying user name:	WinNT
#	Modification time:	15. 06. 2019 21:23

#	Program:	/corina/corina34_cracker 3.40 0067  02.08.2006

@<TRIPOS>MOLECULE
ASD09740644
  65   69    0    0    0
SMALL
NO_CHARGES


@<TRIPOS>ATOM
   1 N1            -0.2037     1.2446     0.6067 N.2     
   2 N2            -0.1258    -0.0099     0.5054 N.2     
   3 C3             0.9138     1.9188     0.6614 C.2     
   4 S4             2.2463     0.7657     0.5685 S.3     
   5 C5             1.0659    -0.5418     0.4627 C.2     
   6 C6             1.0397     3.3866     0.7799 C.ar    
   7 C7            -0.1025     4.1806     0.8443 C.ar    
   8 C8             2.3055     3.9775     0.8331 C.ar    
   9 C9             2.4289     5.3458     0.9436 C.ar    
  10 C10            1.2978     6.1471     1.0028 C.ar    
  11 C11            0.0222     5.5645     0.9560 C.ar    
  12 O12            1.4251     7.4933     1.1120 O.3     
  13 C13            2.7477     8.0087     1.2762 C.3     
  14 C14            3.4032     8.1778    -0.0959 C.3     
  15 C15            2.6826     9.3652     1.9809 C.3     
  16 C16           -1.1471     6.3889     1.0164 C.1     
  17 N17           -2.0747     7.0429     1.0644 N.1     
  18 C18            1.3719    -1.9833     0.3468 C.ar    
  19 C19            0.3330    -2.9154     0.2713 C.ar    
  20 C20            0.6254    -4.2595     0.1628 C.ar    
  21 C21            1.9459    -4.6796     0.1293 C.ar    
  22 C22            2.9770    -3.7616     0.2039 C.ar    
  23 C23            2.6979    -2.4147     0.3069 C.ar    
  24 C24           -1.1672    -2.7159     0.2871 C.3     
  25 C25           -1.7552    -4.0338    -0.2605 C.3     
  26 C26           -0.6586    -5.0590     0.0983 C.3     
  27 N27           -0.5652    -6.0879    -0.9404 N.am    
  28 C28           -0.0794    -7.3082    -0.6383 C.2     
  29 O29            0.3643    -7.5281     0.4721 O.2     
  30 N30           -0.0855    -8.2848    -1.5672 N.am    
  31 C31           -0.5099    -8.0043    -2.9455 C.3     
  32 C32            0.5915    -8.4672    -3.9044 C.3     
  33 C33            0.9134    -9.9385    -3.6330 C.3     
  34 C34            1.4246   -10.0945    -2.1990 C.3     
  35 C35            0.3380    -9.6487    -1.2221 C.3     
  36 O36            1.7538   -11.4637    -1.9562 O.3     
  37 H37           -1.0815     3.7259     0.8075 H       
  38 H38            3.1900     3.3595     0.7878 H       
  39 H39            3.4098     5.7960     0.9846 H       
  40 H40            3.3360     7.3151     1.8769 H       
  41 H41            4.4121     8.5709     0.0294 H       
  42 H42            3.4496     7.2114    -0.5979 H       
  43 H43            2.8150     8.8714    -0.6966 H       
  44 H44            2.2156     9.2448     2.9584 H       
  45 H45            3.6915     9.7583     2.1062 H       
  46 H46            2.0944    10.0589     1.3802 H       
  47 H47            2.1711    -5.7325     0.0445 H       
  48 H48            4.0025    -4.0992     0.1771 H       
  49 H49            3.5031    -1.6974     0.3652 H       
  50 H50           -1.5148    -2.5408     1.3052 H       
  51 H51           -1.4446    -1.8814    -0.3569 H       
  52 H52           -2.6924    -4.2775     0.2399 H       
  53 H53           -1.8944    -3.9770    -1.3401 H       
  54 H54           -0.8692    -5.5151     1.0656 H       
  55 H55           -0.8529    -5.8908    -1.8455 H       
  56 H56           -1.4323    -8.5437    -3.1608 H       
  57 H57           -0.6736    -6.9335    -3.0667 H       
  58 H58            0.2497    -8.3533    -4.9332 H       
  59 H59            1.4862    -7.8643    -3.7490 H       
  60 H60            0.0124   -10.5377    -3.7645 H       
  61 H61            1.6795   -10.2773    -4.3305 H       
  62 H62            2.3114    -9.4763    -2.0596 H       
  63 H63            0.7316    -9.6643    -0.2058 H       
  64 H64           -0.5172   -10.3206    -1.2953 H       
  65 H65            2.0854   -11.6363    -1.0644 H       
@<TRIPOS>BOND
   1    1    2 1
   2    1    3 2
   3    2    5 2
   4    3    4 1
   5    3    6 1
   6    4    5 1
   7    5   18 1
   8    6    7 ar
   9    6    8 ar
  10    7   11 ar
  11    7   37 1
  12    8    9 ar
  13    8   38 1
  14    9   10 ar
  15    9   39 1
  16   10   11 ar
  17   10   12 1
  18   11   16 1
  19   12   13 1
  20   13   14 1
  21   13   15 1
  22   13   40 1
  23   14   41 1
  24   14   42 1
  25   14   43 1
  26   15   44 1
  27   15   45 1
  28   15   46 1
  29   16   17 3
  30   18   19 ar
  31   18   23 ar
  32   19   20 ar
  33   19   24 1
  34   20   21 ar
  35   20   26 1
  36   21   22 ar
  37   21   47 1
  38   22   23 ar
  39   22   48 1
  40   23   49 1
  41   24   25 1
  42   24   50 1
  43   24   51 1
  44   25   26 1
  45   25   52 1
  46   25   53 1
  47   26   27 1
  48   26   54 1
  49   27   28 am
  50   27   55 1
  51   28   29 2
  52   28   30 am
  53   30   31 1
  54   30   35 1
  55   31   32 1
  56   31   56 1
  57   31   57 1
  58   32   33 1
  59   32   58 1
  60   32   59 1
  61   33   34 1
  62   33   60 1
  63   33   61 1
  64   34   35 1
  65   34   36 1
  66   34   62 1
  67   35   63 1
  68   35   64 1
  69   36   65 1

#	End of record

