#	Name: ASD01140299
#	Creating user name:	WinNT
#	Creation time:	15. 06. 2019 19:00

#	Modifying user name:	WinNT
#	Modification time:	15. 06. 2019 19:00

#	Program:	/corina/corina34_cracker 3.40 0067  02.08.2006

@<TRIPOS>MOLECULE
ASD01140299
  56   59    0    0    0
SMALL
NO_CHARGES


@<TRIPOS>ATOM
   1 C1             0.2587     1.7715     0.4994 C.ar    
   2 C2             0.1285     0.3803     0.4996 C.ar    
   3 C3             1.2511    -0.4215     0.3354 C.ar    
   4 C4             2.5170     0.1551     0.1688 C.ar    
   5 C5             2.6279     1.5477     0.1473 C.ar    
   6 C6             1.4988     2.3428     0.3243 C.ar    
   7 C7             3.6700    -0.7456     0.0564 C.2     
   8 N8             4.6800    -0.6393    -0.7333 N.2     
   9 C9             4.7931     0.4597    -1.6991 C.3     
  10 C10            4.8217     1.7508    -0.9228 C.2     
  11 N11            3.8499     2.1858    -0.0825 N.pl3   
  12 C12            4.2726     3.3597     0.4608 C.2     
  13 C13            5.8064     2.6905    -0.9190 C.2     
  14 N14            5.4328     3.6652    -0.0472 N.2     
  15 C15            3.6714    -1.9181     0.9618 C.ar    
  16 C16            2.9636    -1.8762     2.1629 C.ar    
  17 C17            4.3759    -3.0705     0.6138 C.ar    
  18 C18            4.3730    -4.1596     1.4610 C.ar    
  19 C19            3.6733    -4.1101     2.6535 C.ar    
  20 C20            2.9684    -2.9718     3.0017 C.ar    
  21 C21           -1.1611    -0.2186     0.6695 C.1     
  22 C22           -2.2184    -0.7096     0.8088 C.1     
  23 Si23          -3.9294    -1.5043     1.0343 Si      
  24 C24           -3.7636    -3.3593     0.9878 C.3     
  25 C25           -4.6438    -0.9855     2.6748 C.3     
  26 C26           -5.0586    -0.9472    -0.3388 C.3     
  27 C27            7.0462     2.6575    -1.7111 C.2     
  28 O28            7.2651     1.7245    -2.4588 O.2     
  29 O29            7.9392     3.6619    -1.6074 O.3     
  30 C30            9.1396     3.5631    -2.4182 C.3     
  31 C31           10.0261     4.7847    -2.1681 C.3     
  32 H32           -0.6118     2.3969     0.6318 H       
  33 H33            1.1472    -1.4965     0.3365 H       
  34 H34            1.5968     3.4184     0.3243 H       
  35 H35            5.7133     0.3535    -2.2736 H       
  36 H36            3.9345     0.4514    -2.3706 H       
  37 H37            3.7342     3.9430     1.1932 H       
  38 H38            2.4132    -0.9880     2.4359 H       
  39 H39            4.9221    -3.1104    -0.3170 H       
  40 H40            4.9178    -5.0526     1.1925 H       
  41 H41            3.6738    -4.9652     3.3132 H       
  42 H42            2.4244    -2.9389     3.9341 H       
  43 H43           -3.1030    -3.6852     1.7912 H       
  44 H44           -4.7452    -3.8152     1.1172 H       
  45 H45           -3.3457    -3.6628     0.0280 H       
  46 H46           -4.7408     0.0998     2.7019 H       
  47 H47           -5.6254    -1.4414     2.8041 H       
  48 H48           -3.9831    -1.3114     3.4781 H       
  49 H49           -4.6407    -1.2507    -1.2987 H       
  50 H50           -6.0402    -1.4031    -0.2095 H       
  51 H51           -5.1556     0.1382    -0.3117 H       
  52 H52            9.6848     2.6578    -2.1513 H       
  53 H53            8.8641     3.5238    -3.4721 H       
  54 H54            9.4809     5.6900    -2.4350 H       
  55 H55           10.3016     4.8240    -1.1142 H       
  56 H56           10.9273     4.7105    -2.7767 H       
@<TRIPOS>BOND
   1    1    2 ar
   2    1    6 ar
   3    1   32 1
   4    2    3 ar
   5    2   21 1
   6    3    4 ar
   7    3   33 1
   8    4    5 ar
   9    4    7 1
  10    5    6 ar
  11    5   11 1
  12    6   34 1
  13    7    8 2
  14    7   15 1
  15    8    9 1
  16    9   10 1
  17    9   35 1
  18    9   36 1
  19   10   11 1
  20   10   13 2
  21   11   12 1
  22   12   14 2
  23   12   37 1
  24   13   14 1
  25   13   27 1
  26   15   16 ar
  27   15   17 ar
  28   16   20 ar
  29   16   38 1
  30   17   18 ar
  31   17   39 1
  32   18   19 ar
  33   18   40 1
  34   19   20 ar
  35   19   41 1
  36   20   42 1
  37   21   22 3
  38   22   23 1
  39   23   24 1
  40   23   25 1
  41   23   26 1
  42   24   43 1
  43   24   44 1
  44   24   45 1
  45   25   46 1
  46   25   47 1
  47   25   48 1
  48   26   49 1
  49   26   50 1
  50   26   51 1
  51   27   28 2
  52   27   29 1
  53   29   30 1
  54   30   31 1
  55   30   52 1
  56   30   53 1
  57   31   54 1
  58   31   55 1
  59   31   56 1

#	End of record

