#	Name: ASD04660037
#	Creating user name:	WinNT
#	Creation time:	15. 06. 2019 20:52

#	Modifying user name:	WinNT
#	Modification time:	15. 06. 2019 20:52

#	Program:	/corina/corina34_cracker 3.40 0067  02.08.2006

@<TRIPOS>MOLECULE
ASD04660037
  18   19    0    0    0
SMALL
NO_CHARGES


@<TRIPOS>ATOM
   1 C1            -0.0168     1.3884     0.0097 C.ar    
   2 C2             0.0021    -0.0041     0.0020 C.ar    
   3 C3            -1.1573    -0.7201     0.0088 C.ar    
   4 C4            -2.3925    -0.0508     0.0241 C.ar    
   5 C5            -2.4242     1.3655     0.0325 C.ar    
   6 C6            -1.2076     2.0782     0.0305 C.ar    
   7 O7            -1.2109     3.4370     0.0384 O.3     
   8 Cl8           -1.1082    -2.4554    -0.0021 Cl      
   9 C9            -3.6084    -0.7600     0.0309 C.ar    
  10 C10           -4.7719    -0.0448     0.0454 C.ar    
  11 C11           -4.7318     1.3479     0.0531 C.ar    
  12 N12           -3.5975     2.0049     0.0464 N.ar    
  13 I13            1.7911     2.4469    -0.0019 I       
  14 H14            0.9488    -0.5237    -0.0098 H       
  15 H15           -1.2073     3.8252     0.9240 H       
  16 H16           -3.6210    -1.8399     0.0243 H       
  17 H17           -5.7220    -0.5582     0.0506 H       
  18 H18           -5.6596     1.9006     0.0643 H       
@<TRIPOS>BOND
   1    1    2 ar
   2    1   13 1
   3    1    6 ar
   4    2    3 ar
   5    2   14 1
   6    3    4 ar
   7    3    8 1
   8    4    5 ar
   9    4    9 ar
  10    5    6 ar
  11    5   12 ar
  12    6    7 1
  13    7   15 1
  14    9   10 ar
  15    9   16 1
  16   10   11 ar
  17   10   17 1
  18   11   12 ar
  19   11   18 1

#	End of record

