#	Name: ASD03092511
#	Creating user name:	WinNT
#	Creation time:	15. 06. 2019 20:32

#	Modifying user name:	WinNT
#	Modification time:	15. 06. 2019 20:32

#	Program:	/corina/corina34_cracker 3.40 0067  02.08.2006

@<TRIPOS>MOLECULE
ASD03092511
  33   35    0    0    0
SMALL
NO_CHARGES


@<TRIPOS>ATOM
   1 C1            -0.0164     1.3559     0.0095 C.2     
   2 C2             0.0021    -0.0041     0.0020 C.2     
   3 C3             1.3382    -0.5521    -0.0137 C.2     
   4 C4             2.2833     0.3805    -0.0177 C.2     
   5 S5             1.5684     1.9832    -0.0023 S.3     
   6 C6            -1.2147    -0.8323     0.0092 C.2     
   7 O7            -1.1248    -2.0453     0.0023 O.2     
   8 N8            -2.4285    -0.2465     0.0234 N.am    
   9 C9            -3.6395    -1.0708     0.0306 C.3     
  10 N10           -8.1781     2.2581    -0.1838 N.pl3   
  11 C11           -8.3266     2.3649    -1.5398 C.2     
  12 C12           -7.3675     1.6611    -2.1619 C.2     
  13 C13           -6.5371     1.0541    -1.1190 C.ar    
  14 C14           -5.4114     0.2281    -1.1329 C.ar    
  15 C15           -4.8542    -0.1789     0.0463 C.ar    
  16 C16           -5.3982     0.2222     1.2590 C.ar    
  17 C17           -6.5086     1.0365     1.2958 C.ar    
  18 C18           -7.0924     1.4629     0.1071 C.ar    
  19 C19           -9.4069     3.1550    -2.2323 C.3     
  20 H20           -0.9137     1.9569     0.0172 H       
  21 H21            1.5472    -1.6116    -0.0210 H       
  22 H22            3.3446     0.1805    -0.0289 H       
  23 H23           -2.5001     0.7208     0.0289 H       
  24 H24           -3.6591    -1.6956    -0.8624 H       
  25 H25           -3.6425    -1.7045     0.9174 H       
  26 H26           -8.7501     2.6828     0.4745 H       
  27 H27           -7.2336     1.5613    -3.2289 H       
  28 H28           -4.9832    -0.0887    -2.0724 H       
  29 H29           -4.9465    -0.1078     2.1828 H       
  30 H30           -6.9247     1.3428     2.2442 H       
  31 H31           -9.0601     4.1745    -2.4009 H       
  32 H32           -9.6419     2.6883    -3.1889 H       
  33 H33          -10.3003     3.1736    -1.6081 H       
@<TRIPOS>BOND
   1    1    2 2
   2    1    5 1
   3    1   20 1
   4    2    3 1
   5    2    6 1
   6    3    4 2
   7    3   21 1
   8    4    5 1
   9    4   22 1
  10    6    7 2
  11    6    8 am
  12    8    9 1
  13    8   23 1
  14    9   15 1
  15    9   24 1
  16    9   25 1
  17   10   11 1
  18   10   18 1
  19   10   26 1
  20   11   12 2
  21   11   19 1
  22   12   13 1
  23   12   27 1
  24   13   14 ar
  25   13   18 ar
  26   14   15 ar
  27   14   28 1
  28   15   16 ar
  29   16   17 ar
  30   16   29 1
  31   17   18 ar
  32   17   30 1
  33   19   31 1
  34   19   32 1
  35   19   33 1

#	End of record

