#	Name: ASD01911806
#	Creating user name:	WinNT
#	Creation time:	15. 06. 2019 19:58

#	Modifying user name:	WinNT
#	Modification time:	15. 06. 2019 19:58

#	Program:	/corina/corina34_cracker 3.40 0067  02.08.2006

@<TRIPOS>MOLECULE
ASD01911806
  30   32    0    0    0
SMALL
NO_CHARGES


@<TRIPOS>ATOM
   1 C1             0.1409     0.8413    -1.0300 C.2     
   2 N2             0.0453    -0.3369    -0.3355 N.pl3   
   3 C3             1.2095    -1.0242    -0.0129 C.2     
   4 C4             2.4523    -0.4741    -0.4174 C.2     
   5 C5             2.4495     0.6970    -1.1003 C.2     
   6 N6             1.2963     1.3187    -1.3869 N.2     
   7 C7             0.8735    -2.1535     0.6693 C.2     
   8 C8            -0.5409    -2.1759     0.7780 C.2     
   9 C9            -1.0194    -1.0337     0.1434 C.2     
  10 C10           -1.3475    -3.2092     1.4356 C.2     
  11 O11           -2.5594    -3.1110     1.4597 O.2     
  12 O12           -0.7452    -4.2685     2.0134 O.3     
  13 N13           -2.3493    -0.6696     0.0213 N.pl3   
  14 C14           -2.8400     0.4336     0.7270 C.ar    
  15 C15           -4.1907     0.7608     0.6585 C.ar    
  16 C16           -4.6715     1.8521     1.3576 C.ar    
  17 C17           -3.8108     2.6178     2.1243 C.ar    
  18 C18           -2.4679     2.2946     2.1934 C.ar    
  19 C19           -1.9816     1.2015     1.5021 C.ar    
  20 I20           -4.5436     4.2709     3.1823 I       
  21 F21           -5.0308     0.0134    -0.0904 F       
  22 H22           -0.7589     1.3796    -1.2887 H       
  23 H23            3.3800    -0.9765    -0.1863 H       
  24 H24            3.3853     1.1330    -1.4176 H       
  25 H25            1.5569    -2.8950     1.0557 H       
  26 H26           -1.3185    -4.9237     2.4345 H       
  27 H27           -2.9410    -1.1796    -0.5539 H       
  28 H28           -5.7196     2.1075     1.3051 H       
  29 H29           -1.7991     2.8947     2.7925 H       
  30 H30           -0.9335     0.9475     1.5609 H       
@<TRIPOS>BOND
   1    1    2 1
   2    1    6 2
   3    1   22 1
   4    2    3 1
   5    2    9 1
   6    3    4 1
   7    3    7 2
   8    4    5 2
   9    4   23 1
  10    5    6 1
  11    5   24 1
  12    7    8 1
  13    7   25 1
  14    8    9 2
  15    8   10 1
  16    9   13 1
  17   10   11 2
  18   10   12 1
  19   12   26 1
  20   13   14 1
  21   13   27 1
  22   14   15 ar
  23   14   19 ar
  24   15   16 ar
  25   15   21 1
  26   16   17 ar
  27   16   28 1
  28   17   18 ar
  29   17   20 1
  30   18   19 ar
  31   18   29 1
  32   19   30 1

#	End of record

