#	Name: ASD01410295
#	Creating user name:	WinNT
#	Creation time:	15. 06. 2019 19:17

#	Modifying user name:	WinNT
#	Modification time:	15. 06. 2019 19:17

#	Program:	/corina/corina34_cracker 3.40 0067  02.08.2006

@<TRIPOS>MOLECULE
ASD01410295
  55   59    0    0    0
SMALL
NO_CHARGES


@<TRIPOS>ATOM
   1 O1             0.1455     1.6415    -0.2457 O.3     
   2 C2             0.0782     0.3033    -0.2124 C.2     
   3 C3             1.3435    -0.1885    -0.1151 C.2     
   4 C4             2.2255     0.9855    -0.0901 C.2     
   5 C5             1.4194     2.0564    -0.1734 C.2     
   6 N6             2.6642    -2.2147    -0.8730 N.pl3   
   7 C7             1.7464    -1.6095    -0.0485 C.2     
   8 C8             1.2681    -2.5206     0.8375 C.2     
   9 C9             1.9023    -3.7575     0.5723 C.ar    
  10 C10            2.7793    -3.5424    -0.5107 C.ar    
  11 C11            1.8077    -5.0302     1.1546 C.ar    
  12 C12            2.5615    -6.0564     0.6749 C.ar    
  13 C13            3.4371    -5.8518    -0.4026 C.ar    
  14 C14            3.5430    -4.5924    -0.9928 C.ar    
  15 C15           -0.9733    -3.1593     1.6846 C.3     
  16 C16           -2.0130    -2.8954     2.7755 C.3     
  17 C17           -1.4033    -3.1998     4.1454 C.3     
  18 C18           -0.1861    -2.3012     4.3729 C.3     
  19 C19            0.8537    -2.5650     3.2820 C.3     
  20 C20            0.2440    -2.2607     1.9121 C.3     
  21 C21            0.9515    -1.1035    -4.8021 C.ar    
  22 C22            1.6300    -0.9128    -3.6129 C.ar    
  23 C23            2.6567    -1.7677    -3.2582 C.ar    
  24 C24            3.0060    -2.8123    -4.0935 C.ar    
  25 C25            2.3285    -3.0022    -5.2833 C.ar    
  26 C26            1.3011    -2.1478    -5.6376 C.ar    
  27 C27            3.3954    -1.5608    -1.9611 C.3     
  28 C28            4.2480    -6.9715    -0.9120 C.2     
  29 O29            5.0070    -6.7969    -1.8449 O.2     
  30 O30            4.1480    -8.1893    -0.3433 O.3     
  31 H31           -0.8266    -0.2849    -0.2552 H       
  32 H32            3.3031     0.9873    -0.0191 H       
  33 H33            1.7444     3.0863    -0.1816 H       
  34 H34            1.1364    -5.1955     1.9844 H       
  35 H35            2.4858    -7.0346     1.1264 H       
  36 H36            4.2171    -4.4369    -1.8222 H       
  37 H37           -0.6654    -4.2043     1.7212 H       
  38 H38           -1.4076    -2.9425     0.7086 H       
  39 H39           -2.3209    -1.8505     2.7389 H       
  40 H40           -2.8802    -3.5356     2.6135 H       
  41 H41           -2.1440    -3.0118     4.9227 H       
  42 H42           -1.0954    -4.2448     4.1820 H       
  43 H43           -0.4940    -1.2562     4.3363 H       
  44 H44            0.2483    -2.5180     5.3489 H       
  45 H45            1.7208    -1.9248     3.4440 H       
  46 H46            1.1616    -3.6100     3.3186 H       
  47 H47           -0.0639    -1.2157     1.8755 H       
  48 H48            0.1464    -0.4382    -5.0772 H       
  49 H49            1.3570    -0.0967    -2.9604 H       
  50 H50            3.8087    -3.4798    -3.8167 H       
  51 H51            2.6017    -3.8181    -5.9361 H       
  52 H52            0.7715    -2.2963    -6.5670 H       
  53 H53            3.4755    -0.4934    -1.7549 H       
  54 H54            4.3935    -1.9918    -2.0386 H       
  55 H55            4.6999    -8.8926    -0.7120 H       
@<TRIPOS>BOND
   1    1    2 1
   2    1    5 1
   3    2    3 2
   4    2   31 1
   5    3    4 1
   6    3    7 1
   7    4    5 2
   8    4   32 1
   9    5   33 1
  10    6    7 1
  11    6   10 1
  12    6   27 1
  13    7    8 2
  14    8    9 1
  15    8   20 1
  16    9   10 ar
  17    9   11 ar
  18   10   14 ar
  19   11   12 ar
  20   11   34 1
  21   12   13 ar
  22   12   35 1
  23   13   14 ar
  24   13   28 1
  25   14   36 1
  26   15   16 1
  27   15   20 1
  28   15   37 1
  29   15   38 1
  30   16   17 1
  31   16   39 1
  32   16   40 1
  33   17   18 1
  34   17   41 1
  35   17   42 1
  36   18   19 1
  37   18   43 1
  38   18   44 1
  39   19   20 1
  40   19   45 1
  41   19   46 1
  42   20   47 1
  43   21   22 ar
  44   21   26 ar
  45   21   48 1
  46   22   23 ar
  47   22   49 1
  48   23   24 ar
  49   23   27 1
  50   24   25 ar
  51   24   50 1
  52   25   26 ar
  53   25   51 1
  54   26   52 1
  55   27   53 1
  56   27   54 1
  57   28   29 2
  58   28   30 1
  59   30   55 1

#	End of record

