#	Name: ASD08390042
#	Creating user name:	WinNT
#	Creation time:	15. 06. 2019 21:19

#	Modifying user name:	WinNT
#	Modification time:	15. 06. 2019 21:19

#	Program:	/corina/corina34_cracker 3.40 0067  02.08.2006

@<TRIPOS>MOLECULE
ASD08390042
  56   59    0    0    0
SMALL
NO_CHARGES


@<TRIPOS>ATOM
   1 C1            -0.2191     1.5171    -0.1594 C.3     
   2 C2            -0.0106     0.0619     0.3049 C.3     
   3 N3             1.1483     1.9772    -0.4538 N.pl3   
   4 C4             2.0145     0.9456    -0.1986 C.2     
   5 N5             1.4431    -0.1346     0.2209 N.2     
   6 C6             3.4788     1.0598    -0.3871 C.ar    
   7 C7             4.3505     0.5229     0.5599 C.ar    
   8 C8             5.7141     0.6325     0.3788 C.ar    
   9 C9             6.2169     1.2738    -0.7391 C.ar    
  10 C10            5.3572     1.8088    -1.6817 C.ar    
  11 C11            3.9918     1.6997    -1.5150 C.ar    
  12 C12           -1.0738     1.5620    -1.3997 C.ar    
  13 C13            1.5196     3.3093    -0.9376 C.3     
  14 C14            1.6494     4.2504     0.2322 C.ar    
  15 C15            2.8878     4.4763     0.8034 C.ar    
  16 C16            3.0069     5.3396     1.8765 C.ar    
  17 C17            1.8877     5.9772     2.3782 C.ar    
  18 C18            0.6495     5.7519     1.8064 C.ar    
  19 C19            0.5310     4.8920     0.7306 C.ar    
  20 C20           -2.4190     1.8650    -1.3016 C.ar    
  21 C21           -3.2031     1.9062    -2.4393 C.ar    
  22 C22           -2.6418     1.6449    -3.6753 C.ar    
  23 C23           -1.2965     1.3428    -3.7736 C.ar    
  24 C24           -0.5115     1.3058    -2.6363 C.ar    
  25 C25           -0.4931    -0.1154     1.7460 C.3     
  26 C26           -0.7294    -0.8933    -0.6125 C.2     
  27 O27           -1.8664    -1.2230    -0.3707 O.2     
  28 O28           -0.1066    -1.3779    -1.6984 O.3     
  29 C29            0.0079    -2.7359    -3.7166 C.3     
  30 C30           -0.8600    -2.2932    -2.5369 C.3     
  31 H31           -0.6630     2.1149     0.6366 H       
  32 H32            3.9592     0.0226     1.4334 H       
  33 H33            6.3901     0.2171     1.1115 H       
  34 H34            7.2848     1.3574    -0.8763 H       
  35 H35            5.7556     2.3086    -2.5522 H       
  36 H36            3.3216     2.1175    -2.2518 H       
  37 H37            2.4717     3.2519    -1.4652 H       
  38 H38            0.7498     3.6770    -1.6161 H       
  39 H39            3.7623     3.9782     0.4114 H       
  40 H40            3.9744     5.5155     2.3232 H       
  41 H41            1.9807     6.6511     3.2170 H       
  42 H42           -0.2250     6.2498     2.1986 H       
  43 H43           -0.4364     4.7161     0.2839 H       
  44 H44           -2.8575     2.0692    -0.3359 H       
  45 H45           -4.2541     2.1422    -2.3625 H       
  46 H46           -3.2546     1.6764    -4.5641 H       
  47 H47           -0.8581     1.1383    -4.7392 H       
  48 H48            0.5396     1.0698    -2.7131 H       
  49 H49           -1.5541     0.1268     1.8063 H       
  50 H50           -0.3380    -1.1486     2.0566 H       
  51 H51            0.0691     0.5494     2.4018 H       
  52 H52           -0.5576    -3.4229    -4.3460 H       
  53 H53            0.2988    -1.8632    -4.3013 H       
  54 H54            0.9009    -3.2369    -3.3428 H       
  55 H55           -1.1508    -3.1659    -1.9521 H       
  56 H56           -1.7530    -1.7922    -2.9106 H       
@<TRIPOS>BOND
   1    1    2 1
   2    1    3 1
   3    1   12 1
   4    1   31 1
   5    2   25 1
   6    2   26 1
   7    2    5 1
   8    3    4 1
   9    3   13 1
  10    4    5 2
  11    4    6 1
  12    6    7 ar
  13    6   11 ar
  14    7    8 ar
  15    7   32 1
  16    8    9 ar
  17    8   33 1
  18    9   10 ar
  19    9   34 1
  20   10   11 ar
  21   10   35 1
  22   11   36 1
  23   12   20 ar
  24   12   24 ar
  25   13   14 1
  26   13   37 1
  27   13   38 1
  28   14   15 ar
  29   14   19 ar
  30   15   16 ar
  31   15   39 1
  32   16   17 ar
  33   16   40 1
  34   17   18 ar
  35   17   41 1
  36   18   19 ar
  37   18   42 1
  38   19   43 1
  39   20   21 ar
  40   20   44 1
  41   21   22 ar
  42   21   45 1
  43   22   23 ar
  44   22   46 1
  45   23   24 ar
  46   23   47 1
  47   24   48 1
  48   25   49 1
  49   25   50 1
  50   25   51 1
  51   26   27 2
  52   26   28 1
  53   28   30 1
  54   29   30 1
  55   29   52 1
  56   29   53 1
  57   29   54 1
  58   30   55 1
  59   30   56 1

#	End of record

