#	Name: ASD07990001
#	Creating user name:	WinNT
#	Creation time:	15. 06. 2019 21:14

#	Modifying user name:	WinNT
#	Modification time:	15. 06. 2019 21:14

#	Program:	/corina/corina34_cracker 3.40 0067  02.08.2006

@<TRIPOS>MOLECULE
ASD07990001
  22   23    0    0    0
SMALL
NO_CHARGES


@<TRIPOS>ATOM
   1 N1            -0.0165     1.3692     0.0096 N.pl3   
   2 C2             0.0021    -0.0041     0.0020 C.2     
   3 N3             1.0987    -0.6974    -0.0117 N.2     
   4 C4             0.7446    -2.1302    -0.0059 C.3     
   5 C5            -0.7471    -2.0910     0.4070 C.3     
   6 O6            -1.1171    -0.7550     0.0140 O.3     
   7 C7            -1.5451    -3.1218    -0.3491 C.ar    
   8 C8            -1.8690    -4.3232     0.2531 C.ar    
   9 C9            -2.6011    -5.2687    -0.4404 C.ar    
  10 C10           -3.0096    -5.0127    -1.7360 C.ar    
  11 C11           -2.6864    -3.8109    -2.3378 C.ar    
  12 C12           -1.9581    -2.8636    -1.6428 C.ar    
  13 H13            0.8168     1.8656     0.0043 H       
  14 H14           -0.8631     1.8427     0.0162 H       
  15 H15            0.8625    -2.5645    -0.9987 H       
  16 H16            1.3377    -2.6749     0.7287 H       
  17 H17           -0.8590    -2.2238     1.4831 H       
  18 H18           -1.5499    -4.5232     1.2653 H       
  19 H19           -2.8535    -6.2076     0.0298 H       
  20 H20           -3.5809    -5.7517    -2.2781 H       
  21 H21           -3.0053    -3.6110    -3.3501 H       
  22 H22           -1.7057    -1.9247    -2.1130 H       
@<TRIPOS>BOND
   1    1    2 1
   2    1   13 1
   3    1   14 1
   4    2    3 2
   5    2    6 1
   6    3    4 1
   7    4    5 1
   8    4   15 1
   9    4   16 1
  10    5    6 1
  11    5    7 1
  12    5   17 1
  13    7    8 ar
  14    7   12 ar
  15    8    9 ar
  16    8   18 1
  17    9   10 ar
  18    9   19 1
  19   10   11 ar
  20   10   20 1
  21   11   12 ar
  22   11   21 1
  23   12   22 1

#	End of record

