#	Name: ASD00960072
#	Creating user name:	WinNT
#	Creation time:	15. 06. 2019 18:53

#	Modifying user name:	WinNT
#	Modification time:	15. 06. 2019 18:53

#	Program:	/corina/corina34_cracker 3.40 0067  02.08.2006

@<TRIPOS>MOLECULE
ASD00960072
  49   51    0    0    0
SMALL
NO_CHARGES


@<TRIPOS>ATOM
   1 C1            -0.0187     1.5258     0.0104 C.3     
   2 C2            -0.7939     2.0498     1.2396 C.3     
   3 O3            -2.1388     2.2699     0.7613 O.3     
   4 C4            -1.9852     2.8481    -0.5533 C.3     
   5 C5            -3.2663     2.6636    -1.3692 C.3     
   6 C6            -0.7904     1.0203     2.3401 C.2     
   7 C7             0.1928     0.8597     3.2580 C.2     
   8 N8            -1.7720     0.1165     2.5682 N.pl3   
   9 C9            -1.4197    -0.6548     3.6562 C.2     
  10 C10           -0.1794    -0.2012     4.1080 C.2     
  11 N11           -2.9944    -0.1488     1.9339 N.2     
  12 C12           -3.7656    -1.1047     2.3756 C.2     
  13 N13           -3.4366    -1.8553     3.4246 N.2     
  14 C14           -2.3007    -1.6709     4.0790 C.2     
  15 O15           -4.3194     3.4310    -0.7825 O.3     
  16 N16           -1.9833    -2.4635     5.1646 N.pl3   
  17 C17            0.5678    -0.7127     5.2174 C.1     
  18 C18            1.1803    -1.1320     6.1269 C.1     
  19 Si19           2.1717    -1.8107     7.5988 Si      
  20 C20            3.7593    -0.8516     7.7734 C.3     
  21 C21            1.1664    -1.6368     9.1577 C.3     
  22 C22            2.5615    -3.6092     7.3087 C.3     
  23 C23            0.0021    -0.0041     0.0020 C.3     
  24 C24           -0.8173     2.0630    -1.1982 C.3     
  25 F25           -0.0243     2.9144    -1.9750 F       
  26 O26            1.3133     2.0434     0.0005 O.3     
  27 *27            2.0754     1.6441    -1.1166 Du      
  28 H28           -0.3588     2.9849     1.5922 H       
  29 H29           -1.7328     3.9056    -0.4756 H       
  30 H30           -3.0974     3.0006    -2.3919 H       
  31 H31           -3.5446     1.6097    -1.3752 H       
  32 H32            1.1006     1.4409     3.3260 H       
  33 H33           -4.7028    -1.2930     1.8731 H       
  34 H34           -5.1636     3.3615    -1.2490 H       
  35 H35           -2.5942    -3.1602     5.4516 H       
  36 H36           -1.1494    -2.3236     5.6400 H       
  37 H37            3.5312     0.2007     7.9432 H       
  38 H38            4.3280    -1.2409     8.6179 H       
  39 H39            4.3474    -0.9533     6.8614 H       
  40 H40            0.2376    -2.1979     9.0555 H       
  41 H41            1.7352    -2.0261    10.0021 H       
  42 H42            0.9384    -0.5845     9.3274 H       
  43 H43            3.1496    -3.7110     6.3966 H       
  44 H44            3.1302    -3.9986     8.1531 H       
  45 H45            1.6326    -4.1704     7.2065 H       
  46 H46            0.5184    -0.3653     0.8914 H       
  47 H47           -1.0206    -0.3813    -0.0028 H       
  48 H48            0.5232    -0.3555    -0.8885 H       
  49 H49           -1.1981     1.2386    -1.8010 H       
@<TRIPOS>BOND
   1    1   23 1
   2    1   26 1
   3    1    2 1
   4    1   24 1
   5    2    3 1
   6    2    6 1
   7    2   28 1
   8    3    4 1
   9    4   24 1
  10    4    5 1
  11    4   29 1
  12    5   15 1
  13    5   30 1
  14    5   31 1
  15    6    7 2
  16    6    8 1
  17    7   10 1
  18    7   32 1
  19    8    9 1
  20    8   11 1
  21    9   10 2
  22    9   14 1
  23   10   17 1
  24   11   12 2
  25   12   13 1
  26   12   33 1
  27   13   14 2
  28   14   16 1
  29   15   34 1
  30   16   35 1
  31   16   36 1
  32   17   18 3
  33   18   19 1
  34   19   20 1
  35   19   21 1
  36   19   22 1
  37   20   37 1
  38   20   38 1
  39   20   39 1
  40   21   40 1
  41   21   41 1
  42   21   42 1
  43   22   43 1
  44   22   44 1
  45   22   45 1
  46   23   46 1
  47   23   47 1
  48   23   48 1
  49   24   25 1
  50   24   49 1
  51   26   27 1

#	End of record

