#	Name: ASD01912548
#	Creating user name:	WinNT
#	Creation time:	15. 06. 2019 19:59

#	Modifying user name:	WinNT
#	Modification time:	15. 06. 2019 19:59

#	Program:	/corina/corina34_cracker 3.40 0067  02.08.2006

@<TRIPOS>MOLECULE
ASD01912548
  31   31    0    0    0
SMALL
NO_CHARGES


@<TRIPOS>ATOM
   1 C1            -0.0167     1.3796     0.0096 C.ar    
   2 C2             0.0021    -0.0041     0.0020 C.ar    
   3 C3            -1.1828    -0.7197     0.0099 C.ar    
   4 C4            -2.3921    -0.0576     0.0251 C.ar    
   5 C5            -2.4195     1.3408     0.0328 C.ar    
   6 C6            -1.2181     2.0564     0.0305 C.ar    
   7 C7            -3.7060     2.0553     0.0485 C.2     
   8 C8            -4.9983     1.2802     0.0563 C.3     
   9 O9            -3.7261     3.2676     0.0552 O.2     
  10 C10           -6.1598     2.2402     0.0721 C.2     
  11 C11           -7.5720     1.7143     0.0823 C.3     
  12 O12           -5.9589     3.4310     0.0767 O.2     
  13 C13           -8.5533     2.8881     0.0977 C.3     
  14 C14            1.2792     2.1488     0.0014 C.3     
  15 C15            1.7039     2.4169    -1.4438 C.3     
  16 H16            0.9462    -0.5284    -0.0105 H       
  17 H17           -1.1600    -1.7994     0.0039 H       
  18 H18           -3.3157    -0.6173     0.0305 H       
  19 H19           -1.2311     3.1363     0.0365 H       
  20 H20           -5.0538     0.6574    -0.8366 H       
  21 H21           -5.0374     0.6478     0.9433 H       
  22 H22           -7.7414     1.1108    -0.8094 H       
  23 H23           -7.7250     1.1012     0.9705 H       
  24 H24           -8.3839     3.4916     0.9894 H       
  25 H25           -8.4003     3.5012    -0.7905 H       
  26 H26           -9.5747     2.5077     0.1050 H       
  27 H27            1.1423     3.0968     0.5216 H       
  28 H28            2.0507     1.5662     0.5048 H       
  29 H29            1.8408     1.4689    -1.9641 H       
  30 H30            0.9324     2.9995    -1.9472 H       
  31 H31            2.6412     2.9733    -1.4498 H       
@<TRIPOS>BOND
   1    1    2 ar
   2    1   14 1
   3    1    6 ar
   4    2    3 ar
   5    2   16 1
   6    3    4 ar
   7    3   17 1
   8    4    5 ar
   9    4   18 1
  10    5    6 ar
  11    5    7 1
  12    6   19 1
  13    7    8 1
  14    7    9 2
  15    8   10 1
  16    8   20 1
  17    8   21 1
  18   10   11 1
  19   10   12 2
  20   11   13 1
  21   11   22 1
  22   11   23 1
  23   13   24 1
  24   13   25 1
  25   13   26 1
  26   14   15 1
  27   14   27 1
  28   14   28 1
  29   15   29 1
  30   15   30 1
  31   15   31 1

#	End of record

