#	Name: ASD02590005
#	Creating user name:	WinNT
#	Creation time:	15. 06. 2019 20:25

#	Modifying user name:	WinNT
#	Modification time:	15. 06. 2019 20:25

#	Program:	/corina/corina34_cracker 3.40 0067  02.08.2006

@<TRIPOS>MOLECULE
ASD02590005
  34   36    0    0    0
SMALL
NO_CHARGES


@<TRIPOS>ATOM
   1 C1             0.0091     1.3745    -0.2005 C.ar    
   2 C2             0.0014    -0.0037    -0.0032 C.ar    
   3 C3            -1.1516    -0.7313    -0.2048 C.ar    
   4 C4            -2.3143    -0.0890    -0.6070 C.ar    
   5 C5            -2.3151     1.3032    -0.8085 C.ar    
   6 C6            -1.1393     2.0306    -0.5948 C.ar    
   7 N7            -3.5976    -0.5187    -0.8863 N.pl3   
   8 C8            -4.3257     0.5847    -1.2395 C.2     
   9 N9            -3.5666     1.6513    -1.1918 N.2     
  10 C10           -5.7561     0.5746    -1.6190 C.ar    
  11 C11           -6.3894     1.7687    -1.9601 C.ar    
  12 C12           -7.7282     1.7431    -2.3130 C.ar    
  13 C13           -8.3897     0.5238    -2.3132 C.ar    
  14 C14           -7.6989    -0.6235    -1.9636 C.ar    
  15 N15           -6.4247    -0.5726    -1.6372 N.ar    
  16 O16            1.1540     2.0795     0.0022 O.3     
  17 C17            1.0666     3.5022    -0.1003 C.3     
  18 C18            2.1853     4.1425     0.7239 C.3     
  19 C19            1.2108     3.9177    -1.5657 C.3     
  20 H20            0.9050    -0.5059     0.3094 H       
  21 H21           -1.1503    -1.8002    -0.0503 H       
  22 H22           -1.1281     3.0998    -0.7464 H       
  23 H23           -3.9217    -1.4319    -0.8405 H       
  24 H24           -5.8438     2.7007    -1.9489 H       
  25 H25           -8.2459     2.6520    -2.5817 H       
  26 H26           -9.4340     0.4703    -2.5832 H       
  27 H27           -8.2114    -1.5742    -1.9624 H       
  28 H28            0.1002     3.8350     0.2783 H       
  29 H29            3.1517     3.8097     0.3453 H       
  30 H30            2.1186     5.2277     0.6457 H       
  31 H31            2.0825     3.8465     1.7679 H       
  32 H32            2.1772     3.5848    -1.9443 H       
  33 H33            0.4138     3.4615    -2.1529 H       
  34 H34            1.1442     5.0029    -1.6439 H       
@<TRIPOS>BOND
   1    1    2 ar
   2    1   16 1
   3    1    6 ar
   4    2    3 ar
   5    2   20 1
   6    3    4 ar
   7    3   21 1
   8    4    5 ar
   9    4    7 1
  10    5    6 ar
  11    5    9 1
  12    6   22 1
  13    7    8 1
  14    7   23 1
  15    8    9 2
  16    8   10 1
  17   10   11 ar
  18   10   15 ar
  19   11   12 ar
  20   11   24 1
  21   12   13 ar
  22   12   25 1
  23   13   14 ar
  24   13   26 1
  25   14   15 ar
  26   14   27 1
  27   16   17 1
  28   17   18 1
  29   17   19 1
  30   17   28 1
  31   18   29 1
  32   18   30 1
  33   18   31 1
  34   19   32 1
  35   19   33 1
  36   19   34 1

#	End of record

