#	Name: ASD01870544
#	Creating user name:	WinNT
#	Creation time:	15. 06. 2019 19:39

#	Modifying user name:	WinNT
#	Modification time:	15. 06. 2019 19:39

#	Program:	/corina/corina34_cracker 3.40 0067  02.08.2006

@<TRIPOS>MOLECULE
ASD01870544
  38   42    0    0    0
SMALL
NO_CHARGES


@<TRIPOS>ATOM
   1 N1            -0.0159     1.3218     0.0093 N.2     
   2 C2             0.0021    -0.0041     0.0020 C.ar    
   3 C3             1.3553    -0.4303    -0.0132 C.ar    
   4 N4             1.3007     1.8031    -0.0007 N.pl3   
   5 C5            -1.0059    -1.0028     0.0063 C.ar    
   6 N6            -0.6346    -2.2735    -0.0041 N.ar    
   7 C7             0.6441    -2.6217    -0.0182 C.ar    
   8 N8             1.6184    -1.7450    -0.0228 N.ar    
   9 C9             1.8018     3.0710     0.0009 C.2     
  10 C10            2.1503     0.7299    -0.0146 C.2     
  11 C11            3.5361     0.9318    -0.0267 C.2     
  12 C12            4.0272     2.2054    -0.0246 C.2     
  13 C13            3.1363     3.2872    -0.0110 C.2     
  14 N14           -2.3433    -0.6573     0.0214 N.pl3   
  15 C15           -3.3699    -1.7024     0.0255 C.3     
  16 C16           -3.7767    -2.0662     1.4693 C.3     
  17 C17           -4.6931    -1.1742    -0.5682 C.3     
  18 C18           -5.7848    -1.8558     0.2285 C.ar    
  19 C19           -6.0805    -3.0388     2.2895 C.ar    
  20 C20           -5.2582    -2.3683     1.3992 C.ar    
  21 C21           -7.1324    -2.0146    -0.0486 C.ar    
  22 C22           -7.9509    -2.6827     0.8407 C.ar    
  23 C23           -7.4242    -3.1954     2.0116 C.ar    
  24 H24            0.8938    -3.6723    -0.0258 H       
  25 H25            1.1249     3.9124     0.0116 H       
  26 H26            4.2099     0.0878    -0.0373 H       
  27 H27            5.0933     2.3780    -0.0338 H       
  28 H28            3.5174     4.2977    -0.0095 H       
  29 H29           -2.6027     0.2773     0.0292 H       
  30 H30           -3.0261    -2.5831    -0.5169 H       
  31 H31           -3.2271    -2.9447     1.8072 H       
  32 H32           -3.5935    -1.2245     2.1373 H       
  33 H33           -4.7563    -0.0927    -0.4483 H       
  34 H34           -4.7691    -1.4438    -1.6216 H       
  35 H35           -5.6696    -3.4399     3.2042 H       
  36 H36           -7.5446    -1.6143    -0.9631 H       
  37 H37           -9.0014    -2.8048     0.6216 H       
  38 H38           -8.0626    -3.7191     2.7078 H       
@<TRIPOS>BOND
   1    1    2 2
   2    1    4 1
   3    2    3 ar
   4    2    5 ar
   5    3   10 2
   6    3    8 ar
   7    4   10 1
   8    4    9 1
   9    5    6 ar
  10    5   14 1
  11    6    7 ar
  12    7    8 ar
  13    7   24 1
  14    9   13 2
  15    9   25 1
  16   10   11 1
  17   11   12 2
  18   11   26 1
  19   12   13 1
  20   12   27 1
  21   13   28 1
  22   14   15 1
  23   14   29 1
  24   15   17 1
  25   15   16 1
  26   15   30 1
  27   16   20 1
  28   16   31 1
  29   16   32 1
  30   17   18 1
  31   17   33 1
  32   17   34 1
  33   18   21 ar
  34   18   20 ar
  35   19   20 ar
  36   19   23 ar
  37   19   35 1
  38   21   22 ar
  39   21   36 1
  40   22   23 ar
  41   22   37 1
  42   23   38 1

#	End of record

