#	Name: ASD01890108
#	Creating user name:	WinNT
#	Creation time:	15. 06. 2019 19:50

#	Modifying user name:	WinNT
#	Modification time:	15. 06. 2019 19:50

#	Program:	/corina/corina34_cracker 3.40 0067  02.08.2006

@<TRIPOS>MOLECULE
ASD01890108
  34   36    0    0    0
SMALL
NO_CHARGES


@<TRIPOS>ATOM
   1 C1            -0.0178     1.4580     0.0101 C.2     
   2 C2             0.0021    -0.0041     0.0020 C.2     
   3 C3             1.1808    -0.6634    -0.0128 C.2     
   4 O4             1.0281     2.0810     0.0034 O.2     
   5 C5             1.2008    -2.1343    -0.0209 C.ar    
   6 C6             2.4196    -2.8210    -0.0362 C.ar    
   7 C7             2.4297    -4.1996    -0.0432 C.ar    
   8 C8             1.2384    -4.9043    -0.0351 C.ar    
   9 C9             0.0283    -4.2323    -0.0204 C.ar    
  10 C10            0.0011    -2.8539    -0.0074 C.ar    
  11 C11           -1.3206     3.5655     0.0277 C.ar    
  12 C12           -1.3079     2.1797     0.0201 C.ar    
  13 C13           -2.5130     1.4548     0.0214 C.ar    
  14 C14           -3.7100     2.0946     0.0301 C.ar    
  15 C15           -3.7566     3.5008     0.0379 C.ar    
  16 C16           -4.9835     4.1849     0.0459 C.ar    
  17 C17           -4.9972     5.5463     0.0529 C.ar    
  18 C18           -3.8102     6.2765     0.0519 C.ar    
  19 C19           -2.6025     5.6492     0.0438 C.ar    
  20 C20           -2.5482     4.2435     0.0372 C.ar    
  21 H21           -0.9258    -0.5567     0.0079 H       
  22 H22            2.1087    -0.1108    -0.0187 H       
  23 H23            3.3500    -2.2726    -0.0429 H       
  24 H24            3.3698    -4.7312    -0.0554 H       
  25 H25            1.2530    -5.9842    -0.0407 H       
  26 H26           -0.8970    -4.7893    -0.0146 H       
  27 H27           -0.9437    -2.3311     0.0086 H       
  28 H28           -0.3930     4.1186     0.0307 H       
  29 H29           -2.4857     0.3752     0.0151 H       
  30 H30           -4.6270     1.5242     0.0306 H       
  31 H31           -5.9119     3.6332     0.0461 H       
  32 H32           -5.9426     6.0684     0.0591 H       
  33 H33           -3.8493     7.3558     0.0573 H       
  34 H34           -1.6904     6.2277     0.0430 H       
@<TRIPOS>BOND
   1    1    2 1
   2    1    4 2
   3    1   12 1
   4    2    3 2
   5    2   21 1
   6    3    5 1
   7    3   22 1
   8    5    6 ar
   9    5   10 ar
  10    6    7 ar
  11    6   23 1
  12    7    8 ar
  13    7   24 1
  14    8    9 ar
  15    8   25 1
  16    9   10 ar
  17    9   26 1
  18   10   27 1
  19   11   12 ar
  20   11   20 ar
  21   11   28 1
  22   12   13 ar
  23   13   14 ar
  24   13   29 1
  25   14   15 ar
  26   14   30 1
  27   15   16 ar
  28   15   20 ar
  29   16   17 ar
  30   16   31 1
  31   17   18 ar
  32   17   32 1
  33   18   19 ar
  34   18   33 1
  35   19   20 ar
  36   19   34 1

#	End of record

