#	Name: ASD06610040
#	Creating user name:	WinNT
#	Creation time:	15. 06. 2019 21:07

#	Modifying user name:	WinNT
#	Modification time:	15. 06. 2019 21:07

#	Program:	/corina/corina34_cracker 3.40 0067  02.08.2006

@<TRIPOS>MOLECULE
ASD06610040
 290  290    0    0    0
SMALL
NO_CHARGES


@<TRIPOS>ATOM
   1 C1             0.1536     2.4269    -0.4936 C.2     
   2 O2             0.2243     1.2231    -0.6235 O.2     
   3 N3             2.5793     2.3746    -0.5412 N.am    
   4 C4             1.4123     3.2528    -0.4271 C.3     
   5 C5             1.4204     4.2635    -1.5758 C.3     
   6 C6             2.6165     5.1699    -1.4390 C.ar    
   7 C7             3.8147     4.8284    -2.0379 C.ar    
   8 C8             4.9119     5.6599    -1.9123 C.ar    
   9 C9             4.8107     6.8331    -1.1882 C.ar    
  10 C10            3.6123     7.1750    -0.5901 C.ar    
  11 C11            2.5140     6.3457    -0.7193 C.ar    
  12 C12           -3.4094     3.0818    -0.9829 C.2     
  13 O13           -3.2151     4.2482    -1.2521 O.2     
  14 N14           -1.0508     3.0265    -0.4143 N.am    
  15 C15           -2.2746     2.2242    -0.4850 C.3     
  16 C16           -2.6136     1.6875     0.9071 C.3     
  17 C17           -1.5199     0.7184     1.3604 C.3     
  18 C18           -1.8590     0.1817     2.7525 C.3     
  19 N19           -0.8117    -0.7462     3.1865 N.pl3   
  20 C20           -0.9011    -1.3580     4.4145 C.2     
  21 N21            0.0307    -2.1836     4.8006 N.2     
  22 N22           -1.9733    -1.0990     5.2351 N.pl3   
  23 C23           -7.0524     2.8175    -1.1289 C.2     
  24 O24           -7.0629     1.8147    -0.4469 O.2     
  25 N25           -4.6402     2.5524    -1.1289 N.am    
  26 C26           -5.7434     3.3861    -1.6129 C.3     
  27 C27           -5.7319     3.4093    -3.1427 C.3     
  28 O28           -6.0024     2.0976    -3.6410 O.3     
  29 C29          -10.5905     3.2934    -1.9155 C.2     
  30 O30          -10.3406     3.9879    -2.8778 O.2     
  31 N31           -8.2116     3.4234    -1.4541 N.am    
  32 C32           -9.4842     2.8707    -0.9836 C.3     
  33 C33           -9.7768     3.3917     0.4249 C.3     
  34 O34           -9.9733     4.8063     0.3783 O.3     
  35 C35          -14.2454     3.3006    -1.8443 C.2     
  36 O36          -14.2788     2.9818    -0.6746 O.2     
  37 N37          -11.8577     2.8996    -1.6794 N.am    
  38 C38          -12.9332     3.3104    -2.5853 C.3     
  39 C39          -13.0061     2.3382    -3.7645 C.3     
  40 C40          -11.7214     2.4396    -4.5892 C.3     
  41 C41          -11.7943     1.4673    -5.7684 C.3     
  42 N42          -10.5642     1.5644    -6.5581 N.pl3   
  43 C43          -10.4007     0.7795    -7.6750 C.2     
  44 N44          -11.3401    -0.0508    -8.0312 N.2     
  45 N45           -9.2463     0.8706    -8.4160 N.pl3   
  46 C46          -17.7862     3.4464    -2.7409 C.2     
  47 O47          -17.5487     3.3304    -3.9246 O.2     
  48 N48          -15.3817     3.6461    -2.4813 N.am    
  49 C49          -16.6573     3.6365    -1.7609 C.3     
  50 C50          -16.8381     4.9664    -1.0263 C.3     
  51 C51          -15.7638     5.1021     0.0546 C.3     
  52 C52          -15.9419     6.4120     0.7781 C.2     
  53 O53          -16.8363     7.1602     0.4618 O.2     
  54 O54          -15.1069     6.7475     1.7741 O.3     
  55 C55          -21.4241     3.8010    -2.6805 C.2     
  56 O56          -21.4113     4.3181    -1.5835 O.2     
  57 N57          -19.0599     3.4054    -2.3020 N.am    
  58 C58          -20.1574     3.2206    -3.2547 C.3     
  59 C59          -20.3556     1.7270    -3.5209 C.3     
  60 C60          -19.1154     1.1642    -4.2180 C.3     
  61 C61          -19.3136    -0.3293    -4.4842 C.3     
  62 C62          -18.0734    -0.8921    -5.1813 C.3     
  63 N63          -18.2637    -2.3262    -5.4369 N.3     
  64 C64          -24.9941     3.6256    -3.4468 C.2     
  65 O65          -24.8308     2.7527    -4.2729 O.2     
  66 N66          -22.5711     3.7454    -3.3861 N.am    
  67 C67          -23.8024     4.3096    -2.8279 C.3     
  68 C68          -23.8601     5.8081    -3.1312 C.3     
  69 C69          -22.7206     6.5208    -2.4001 C.3     
  70 C70          -22.7783     8.0193    -2.7034 C.3     
  71 N71          -21.6872     8.7016    -2.0033 N.pl3   
  72 C72          -21.5364    10.0626    -2.1264 C.2     
  73 N73          -22.3641    10.7458    -2.8659 N.2     
  74 N74          -20.5124    10.7029    -1.4693 N.pl3   
  75 C75          -28.5943     4.2352    -3.6200 C.2     
  76 O76          -28.4885     5.3354    -3.1209 O.2     
  77 N77          -26.2412     3.9838    -3.0824 N.am    
  78 C78          -27.3996     3.3188    -3.6842 C.3     
  79 C79          -27.7035     2.0304    -2.9170 C.3     
  80 C80          -26.5410     1.0500    -3.0860 C.3     
  81 C81          -26.8449    -0.2384    -2.3188 C.3     
  82 N82          -25.7318    -1.1771    -2.4806 N.pl3   
  83 C83          -25.7801    -2.4113    -1.8769 C.2     
  84 N84          -24.7898    -3.2465    -2.0208 N.2     
  85 N85          -26.8730    -2.7646    -1.1212 N.pl3   
  86 C86          -32.2057     3.9028    -4.0787 C.2     
  87 O87          -32.1427     2.6932    -4.1413 O.2     
  88 N88          -29.7803     3.8321    -4.1174 N.am    
  89 C89          -30.9416     4.7229    -4.0551 C.3     
  90 C90          -30.9245     5.6681    -5.2581 C.3     
  91 O91          -31.0914     4.9129    -6.4597 O.3     
  92 C92          -35.7659     4.5517    -4.5952 C.2     
  93 O93          -35.5652     5.7001    -4.9296 O.2     
  94 N94          -33.4062     4.5134    -4.0301 N.am    
  95 C95          -34.6350     3.7161    -4.0530 C.3     
  96 C96          -34.9736     3.2600    -2.6323 C.3     
  97 C97          -38.7183     5.5480    -3.9266 C.2     
  98 O98          -38.2518     5.3506    -2.8246 O.2     
  99 N99          -37.0003     4.0228    -4.7086 N.am    
 100 C100         -38.1223     4.8651    -5.1305 C.3     
 101 C101         -39.1871     3.9967    -5.8035 C.3     
 102 C102         -38.6329     3.4228    -7.0820 C.2     
 103 O103         -37.4779     3.6153    -7.3798 O.2     
 104 O104         -39.4225     2.6979    -7.8899 O.3     
 105 C105         -41.7892     7.3866    -3.1837 C.2     
 106 O106         -42.2831     7.1052    -4.2551 O.2     
 107 N107         -39.7696     6.3782    -4.0745 N.am    
 108 C108         -40.3490     7.0421    -2.9041 C.3     
 109 C109         -39.5671     8.3228    -2.6052 C.3     
 110 C110         -39.6423     9.2598    -3.8123 C.3     
 111 C111         -38.9675    10.5893    -3.4688 C.3     
 112 C112         -38.1049     7.9731    -2.3213 C.3     
 113 C113         -43.9982     9.6638    -3.2357 C.2     
 114 O114         -42.9826    10.2644    -3.4957 O.2     
 115 N115         -42.5285     8.0073    -2.2432 N.am    
 116 C116         -43.9286     8.3422    -2.5149 C.3     
 117 C117         -44.6951     8.4404    -1.1944 C.3     
 118 C118         -44.1505     9.6118    -0.3746 C.3     
 119 C119         -46.1806     8.6665    -1.4826 C.3     
 120 O120         -45.1886    10.1738    -3.5888 O.3     
 121 C121           3.7639     2.7573    -0.0247 C.2     
 122 O122           3.8637     3.8288     0.5346 O.2     
 123 C123          21.9430     0.0991     3.6687 C.3     
 124 C124          20.7243     1.0163     3.7878 C.3     
 125 C125          19.5175     0.3498     3.1243 C.3     
 126 C126          18.2987     1.2670     3.2434 C.3     
 127 C127          17.0920     0.6005     2.5799 C.3     
 128 C128          15.8732     1.5177     2.6990 C.3     
 129 C129          14.6664     0.8511     2.0355 C.3     
 130 C130          13.4477     1.7684     2.1546 C.3     
 131 C131          12.2409     1.1018     1.4911 C.3     
 132 C132          11.0221     2.0191     1.6103 C.3     
 133 C133           9.8154     1.3525     0.9468 C.3     
 134 C134           8.5966     2.2697     1.0659 C.3     
 135 C135           7.3898     1.6032     0.4024 C.3     
 136 C136           6.1711     2.5204     0.5215 C.3     
 137 C137           4.9643     1.8539    -0.1420 C.3     
 138 H138           2.4995     1.5176    -0.9885 H       
 139 H139           1.4488     3.7837     0.5241 H       
 140 H140           1.4737     3.7327    -2.5264 H       
 141 H141           0.5078     4.8586    -1.5426 H       
 142 H142           3.8937     3.9118    -2.6036 H       
 143 H143           5.8482     5.3927    -2.3796 H       
 144 H144           5.6681     7.4823    -1.0895 H       
 145 H145           3.5334     8.0915    -0.0241 H       
 146 H146           1.5766     6.6147    -0.2551 H       
 147 H147          -1.1074     3.9893    -0.3104 H       
 148 H148          -2.1227     1.3894    -1.1692 H       
 149 H149          -2.6781     2.5175     1.6107 H       
 150 H150          -3.5699     1.1656     0.8723 H       
 151 H151          -1.4554    -0.1116     0.6568 H       
 152 H152          -0.5636     1.2403     1.3952 H       
 153 H153          -1.9234     1.0117     3.4561 H       
 154 H154          -2.8153    -0.3402     2.7177 H       
 155 H155          -0.0552    -0.9290     2.6075 H       
 156 H156          -0.0324    -2.6153     5.6670 H       
 157 H157          -2.6667    -0.4846     4.9477 H       
 158 H158          -2.0363    -1.5306     6.1015 H       
 159 H159          -4.7956     1.6195    -0.9135 H       
 160 H160          -5.6256     4.4010    -1.2332 H       
 161 H161          -6.4960     4.0990    -3.5013 H       
 162 H162          -4.7533     3.7367    -3.4937 H       
 163 H163          -6.0107     2.0376    -4.6061 H       
 164 H164          -8.2033     4.2255    -1.9996 H       
 165 H165          -9.4222     1.7827    -0.9630 H       
 166 H166         -10.6769     2.9123     0.8098 H       
 167 H167          -8.9354     3.1630     1.0790 H       
 168 H168         -10.1636     5.2055     1.2382 H       
 169 H169         -12.0575     2.3441    -0.9098 H       
 170 H170         -12.7324     4.3159    -2.9553 H       
 171 H171         -13.1182     1.3207    -3.3900 H       
 172 H172         -13.8612     2.5909    -4.3914 H       
 173 H173         -11.6093     3.4571    -4.9636 H       
 174 H174         -10.8663     2.1868    -3.9623 H       
 175 H175         -11.9064     0.4498    -5.3939 H       
 176 H176         -12.6494     1.7200    -6.3953 H       
 177 H177          -9.8651     2.1823    -6.2929 H       
 178 H178         -11.2247    -0.6046    -8.8193 H       
 179 H179          -8.5472     1.4886    -8.1509 H       
 180 H180          -9.1309     0.3169    -9.2041 H       
 181 H181         -15.3549     3.9011    -3.4168 H       
 182 H182         -16.6610     2.8195    -1.0395 H       
 183 H183         -16.7457     5.7888    -1.7357 H       
 184 H184         -17.8247     4.9947    -0.5637 H       
 185 H185         -15.8562     4.2797     0.7639 H       
 186 H186         -14.7773     5.0738    -0.4081 H       
 187 H187         -15.2609     7.5977     2.2084 H       
 188 H188         -19.2499     3.4982    -1.3554 H       
 189 H189         -19.9165     3.7274    -4.1892 H       
 190 H190         -20.5085     1.2066    -2.5754 H       
 191 H191         -21.2275     1.5843    -4.1593 H       
 192 H192         -18.9625     1.6846    -5.1635 H       
 193 H193         -18.2435     1.3069    -3.5796 H       
 194 H194         -19.4665    -0.8497    -3.5387 H       
 195 H195         -20.1855    -0.4720    -5.1226 H       
 196 H196         -17.9205    -0.3717    -6.1268 H       
 197 H197         -17.2015    -0.7495    -4.5429 H       
 198 H198         -17.4575    -2.7216    -5.8971 H       
 199 H199         -18.4714    -2.8213    -4.5826 H       
 200 H200         -22.5812     3.3319    -4.2634 H       
 201 H201         -23.8157     4.1566    -1.7487 H       
 202 H202         -23.7575     5.9657    -4.2049 H       
 203 H203         -24.8156     6.2105    -2.7946 H       
 204 H204         -22.8232     6.3632    -1.3264 H       
 205 H205         -21.7652     6.1184    -2.7367 H       
 206 H206         -22.6757     8.1768    -3.7771 H       
 207 H207         -23.7338     8.4216    -2.3668 H       
 208 H208         -21.0712     8.1931    -1.4529 H       
 209 H209         -22.2577    11.7060    -2.9528 H       
 210 H210         -19.8964    10.1945    -0.9189 H       
 211 H211         -20.4060    11.6631    -1.5562 H       
 212 H212         -26.3718     4.6819    -2.4218 H       
 213 H213         -27.1810     3.0791    -4.7248 H       
 214 H214         -27.8347     2.2595    -1.8595 H       
 215 H215         -28.6168     1.5817    -3.3076 H       
 216 H216         -26.4098     0.8208    -4.1435 H       
 217 H217         -25.6277     1.4986    -2.6954 H       
 218 H218         -26.9761    -0.0093    -1.2613 H       
 219 H219         -27.7582    -0.6871    -2.7094 H       
 220 H220         -24.9607    -0.9279    -3.0138 H       
 221 H221         -24.8239    -4.1173    -1.5948 H       
 222 H222         -27.6100    -2.1431    -1.0141 H       
 223 H223         -26.9071    -3.6354    -0.6952 H       
 224 H224         -29.8649     2.9521    -4.5166 H       
 225 H225         -30.9036     5.3055    -3.1347 H       
 226 H226         -31.7373     6.3885    -5.1658 H       
 227 H227         -29.9721     6.1973    -5.2908 H       
 228 H228         -31.0903     5.4490    -7.2645 H       
 229 H229         -33.4566     5.4808    -3.9799 H       
 230 H230         -34.4902     2.8435    -4.6899 H       
 231 H231         -35.1185     4.1326    -1.9954 H       
 232 H232         -35.8879     2.6668    -2.6494 H       
 233 H233         -34.1556     2.6557    -2.2401 H       
 234 H234         -37.1460     3.0844    -4.5108 H       
 235 H235         -37.7673     5.6165    -5.8358 H       
 236 H236         -39.4704     3.1848    -5.1336 H       
 237 H237         -40.0633     4.6050    -6.0280 H       
 238 H238         -39.0223     2.3507    -8.6988 H       
 239 H239         -40.1427     6.5361    -4.9559 H       
 240 H240         -40.2954     6.3746    -2.0441 H       
 241 H241         -39.9982     8.8168    -1.7344 H       
 242 H242         -39.1325     8.8020    -4.6600 H       
 243 H243         -40.6865     9.4381    -4.0694 H       
 244 H244         -39.0211    11.2569    -4.3288 H       
 245 H245         -39.4774    11.0472    -2.6212 H       
 246 H246         -37.9234    10.4111    -3.2117 H       
 247 H247         -37.6738     7.4792    -3.1921 H       
 248 H248         -37.5479     8.8855    -2.1083 H       
 249 H249         -38.0513     7.3056    -1.4613 H       
 250 H250         -42.1335     8.2324    -1.3863 H       
 251 H251         -44.3738     7.5654    -3.1366 H       
 252 H252         -44.5708     7.5147    -0.6325 H       
 253 H253         -44.2749    10.5374    -0.9366 H       
 254 H254         -44.6966     9.6818     0.5662 H       
 255 H255         -43.0922     9.4507    -0.1693 H       
 256 H256         -46.5685     7.8319    -2.0667 H       
 257 H257         -46.7266     8.7364    -0.5419 H       
 258 H258         -46.3049     9.5921    -2.0446 H       
 259 H259         -45.1827    11.0241    -4.0493 H       
 260 H260          22.8028     0.5740     4.1414 H       
 261 H261          21.7339    -0.8491     4.1638 H       
 262 H262          22.1607    -0.0810     2.6159 H       
 263 H263          20.5066     1.1965     4.8405 H       
 264 H264          20.9334     1.9646     3.2926 H       
 265 H265          19.7351     0.1697     2.0715 H       
 266 H266          19.3083    -0.5985     3.6195 H       
 267 H267          18.0811     1.4471     4.2962 H       
 268 H268          18.5079     2.2153     2.7482 H       
 269 H269          17.3096     0.4203     1.5271 H       
 270 H270          16.8828    -0.3478     3.0751 H       
 271 H271          15.6555     1.6978     3.7518 H       
 272 H272          16.0823     2.4659     2.2038 H       
 273 H273          14.8841     0.6710     0.9828 H       
 274 H274          14.4573    -0.0971     2.5307 H       
 275 H275          13.2300     1.9485     3.2074 H       
 276 H276          13.6568     2.7166     1.6595 H       
 277 H277          12.4585     0.9217     0.4384 H       
 278 H278          12.0317     0.1536     1.9863 H       
 279 H279          10.8045     2.1992     2.6630 H       
 280 H280          11.2313     2.9673     1.1151 H       
 281 H281          10.0330     1.1724    -0.1060 H       
 282 H282           9.6062     0.4043     1.4419 H       
 283 H283           8.3789     2.4499     2.1186 H       
 284 H284           8.8057     3.2180     0.5707 H       
 285 H285           7.6075     1.4231    -0.6504 H       
 286 H286           7.1807     0.6549     0.8976 H       
 287 H287           5.9534     2.7005     1.5742 H       
 288 H288           6.3802     3.4687     0.0263 H       
 289 H289           4.7552     0.9056     0.3532 H       
 290 H290           5.1820     1.6737    -1.1948 H       
@<TRIPOS>BOND
   1    1    2 2
   2    1    4 1
   3    1   14 am
   4    3  121 am
   5    3    4 1
   6    3  138 1
   7    4    5 1
   8    4  139 1
   9    5    6 1
  10    5  140 1
  11    5  141 1
  12    6    7 ar
  13    6   11 ar
  14    7    8 ar
  15    7  142 1
  16    8    9 ar
  17    8  143 1
  18    9   10 ar
  19    9  144 1
  20   10   11 ar
  21   10  145 1
  22   11  146 1
  23   12   13 2
  24   12   15 1
  25   12   25 am
  26   14   15 1
  27   14  147 1
  28   15   16 1
  29   15  148 1
  30   16   17 1
  31   16  149 1
  32   16  150 1
  33   17   18 1
  34   17  151 1
  35   17  152 1
  36   18   19 1
  37   18  153 1
  38   18  154 1
  39   19   20 1
  40   19  155 1
  41   20   21 2
  42   20   22 1
  43   21  156 1
  44   22  157 1
  45   22  158 1
  46   23   24 2
  47   23   26 1
  48   23   31 am
  49   25   26 1
  50   25  159 1
  51   26   27 1
  52   26  160 1
  53   27   28 1
  54   27  161 1
  55   27  162 1
  56   28  163 1
  57   29   30 2
  58   29   32 1
  59   29   37 am
  60   31   32 1
  61   31  164 1
  62   32   33 1
  63   32  165 1
  64   33   34 1
  65   33  166 1
  66   33  167 1
  67   34  168 1
  68   35   36 2
  69   35   38 1
  70   35   48 am
  71   37   38 1
  72   37  169 1
  73   38   39 1
  74   38  170 1
  75   39   40 1
  76   39  171 1
  77   39  172 1
  78   40   41 1
  79   40  173 1
  80   40  174 1
  81   41   42 1
  82   41  175 1
  83   41  176 1
  84   42   43 1
  85   42  177 1
  86   43   44 2
  87   43   45 1
  88   44  178 1
  89   45  179 1
  90   45  180 1
  91   46   47 2
  92   46   49 1
  93   46   57 am
  94   48   49 1
  95   48  181 1
  96   49   50 1
  97   49  182 1
  98   50   51 1
  99   50  183 1
 100   50  184 1
 101   51   52 1
 102   51  185 1
 103   51  186 1
 104   52   53 2
 105   52   54 1
 106   54  187 1
 107   55   56 2
 108   55   58 1
 109   55   66 am
 110   57   58 1
 111   57  188 1
 112   58   59 1
 113   58  189 1
 114   59   60 1
 115   59  190 1
 116   59  191 1
 117   60   61 1
 118   60  192 1
 119   60  193 1
 120   61   62 1
 121   61  194 1
 122   61  195 1
 123   62   63 1
 124   62  196 1
 125   62  197 1
 126   63  198 1
 127   63  199 1
 128   64   65 2
 129   64   67 1
 130   64   77 am
 131   66   67 1
 132   66  200 1
 133   67   68 1
 134   67  201 1
 135   68   69 1
 136   68  202 1
 137   68  203 1
 138   69   70 1
 139   69  204 1
 140   69  205 1
 141   70   71 1
 142   70  206 1
 143   70  207 1
 144   71   72 1
 145   71  208 1
 146   72   73 2
 147   72   74 1
 148   73  209 1
 149   74  210 1
 150   74  211 1
 151   75   76 2
 152   75   78 1
 153   75   88 am
 154   77   78 1
 155   77  212 1
 156   78   79 1
 157   78  213 1
 158   79   80 1
 159   79  214 1
 160   79  215 1
 161   80   81 1
 162   80  216 1
 163   80  217 1
 164   81   82 1
 165   81  218 1
 166   81  219 1
 167   82   83 1
 168   82  220 1
 169   83   84 2
 170   83   85 1
 171   84  221 1
 172   85  222 1
 173   85  223 1
 174   86   87 2
 175   86   89 1
 176   86   94 am
 177   88   89 1
 178   88  224 1
 179   89   90 1
 180   89  225 1
 181   90   91 1
 182   90  226 1
 183   90  227 1
 184   91  228 1
 185   92   93 2
 186   92   95 1
 187   92   99 am
 188   94   95 1
 189   94  229 1
 190   95   96 1
 191   95  230 1
 192   96  231 1
 193   96  232 1
 194   96  233 1
 195   97   98 2
 196   97  100 1
 197   97  107 am
 198   99  100 1
 199   99  234 1
 200  100  101 1
 201  100  235 1
 202  101  102 1
 203  101  236 1
 204  101  237 1
 205  102  103 2
 206  102  104 1
 207  104  238 1
 208  105  106 2
 209  105  108 1
 210  105  115 am
 211  107  108 1
 212  107  239 1
 213  108  109 1
 214  108  240 1
 215  109  110 1
 216  109  112 1
 217  109  241 1
 218  110  111 1
 219  110  242 1
 220  110  243 1
 221  111  244 1
 222  111  245 1
 223  111  246 1
 224  112  247 1
 225  112  248 1
 226  112  249 1
 227  113  114 2
 228  113  116 1
 229  113  120 1
 230  115  116 1
 231  115  250 1
 232  116  117 1
 233  116  251 1
 234  117  118 1
 235  117  119 1
 236  117  252 1
 237  118  253 1
 238  118  254 1
 239  118  255 1
 240  119  256 1
 241  119  257 1
 242  119  258 1
 243  120  259 1
 244  121  122 2
 245  121  137 1
 246  123  124 1
 247  123  260 1
 248  123  261 1
 249  123  262 1
 250  124  125 1
 251  124  263 1
 252  124  264 1
 253  125  126 1
 254  125  265 1
 255  125  266 1
 256  126  127 1
 257  126  267 1
 258  126  268 1
 259  127  128 1
 260  127  269 1
 261  127  270 1
 262  128  129 1
 263  128  271 1
 264  128  272 1
 265  129  130 1
 266  129  273 1
 267  129  274 1
 268  130  131 1
 269  130  275 1
 270  130  276 1
 271  131  132 1
 272  131  277 1
 273  131  278 1
 274  132  133 1
 275  132  279 1
 276  132  280 1
 277  133  134 1
 278  133  281 1
 279  133  282 1
 280  134  135 1
 281  134  283 1
 282  134  284 1
 283  135  136 1
 284  135  285 1
 285  135  286 1
 286  136  137 1
 287  136  287 1
 288  136  288 1
 289  137  289 1
 290  137  290 1

#	End of record

