#	Name: ASD03180108
#	Creating user name:	WinNT
#	Creation time:	15. 06. 2019 20:33

#	Modifying user name:	WinNT
#	Modification time:	15. 06. 2019 20:33

#	Program:	/corina/corina34_cracker 3.40 0067  02.08.2006

@<TRIPOS>MOLECULE
ASD03180108
  26   27    0    0    0
SMALL
NO_CHARGES


@<TRIPOS>ATOM
   1 N1            -0.0169     1.3933     0.0097 N.pl3   
   2 C2             0.0313    -0.0031    -0.0170 C.ar    
   3 C3             1.2936    -2.0350    -0.1883 C.ar    
   4 C4             0.1265    -2.7680    -0.0707 C.ar    
   5 C5            -1.0882    -2.1223     0.0684 C.ar    
   6 C6            -1.1393    -0.7423     0.0956 C.ar    
   7 C7             1.2496    -0.6552    -0.1619 C.ar    
   8 C8            -2.4636    -0.0393     0.2477 C.3     
   9 N9             1.1255     3.4031     0.5771 N.2     
  10 C10            2.1711     3.9219     1.1951 C.2     
  11 C11            1.0113     2.1114     0.6019 C.2     
  12 S12            2.3127     1.4230     1.4709 S.3     
  13 C13            2.9770     3.0272     1.7683 C.2     
  14 C14           -3.0055     0.3323    -1.1341 C.3     
  15 H15           -0.7674     1.8604    -0.3895 H       
  16 H16            2.2407    -2.5425    -0.2968 H       
  17 H17            0.1637    -3.8472    -0.0921 H       
  18 H18           -1.9976    -2.6976     0.1596 H       
  19 H19            2.1612    -0.0834    -0.2541 H       
  20 H20           -3.1704    -0.7004     0.7493 H       
  21 H21           -2.3288     0.8654     0.8404 H       
  22 H22            2.3583     4.9849     1.2332 H       
  23 H23            3.8796     3.2478     2.3188 H       
  24 H24           -2.2987     0.9933    -1.6357 H       
  25 H25           -3.1403    -0.5725    -1.7268 H       
  26 H26           -3.9633     0.8407    -1.0241 H       
@<TRIPOS>BOND
   1    1    2 1
   2    1   11 1
   3    1   15 1
   4    2    7 ar
   5    2    6 ar
   6    3    4 ar
   7    3    7 ar
   8    3   16 1
   9    4    5 ar
  10    4   17 1
  11    5    6 ar
  12    5   18 1
  13    6    8 1
  14    7   19 1
  15    8   14 1
  16    8   20 1
  17    8   21 1
  18    9   11 2
  19    9   10 1
  20   10   13 2
  21   10   22 1
  22   11   12 1
  23   12   13 1
  24   13   23 1
  25   14   24 1
  26   14   25 1
  27   14   26 1

#	End of record

