#	Name: ASD02039101
#	Creating user name:	WinNT
#	Creation time:	15. 06. 2019 20:17

#	Modifying user name:	WinNT
#	Modification time:	15. 06. 2019 20:17

#	Program:	/corina/corina34_cracker 3.40 0067  02.08.2006

@<TRIPOS>MOLECULE
ASD02039101
  47   50    0    0    0
SMALL
NO_CHARGES


@<TRIPOS>ATOM
   1 N1            -0.0154     1.2823     0.0091 N.2     
   2 N2             0.0021    -0.0041     0.0020 N.2     
   3 C3             1.2155     1.7327    -0.0002 C.2     
   4 O4             2.0320     0.6629    -0.0138 O.3     
   5 C5             1.2335    -0.4225    -0.0120 C.2     
   6 N6             1.6029     3.0599     0.0032 N.pl3   
   7 C7             1.2700     5.4636     0.0197 C.ar    
   8 C8             1.6853    -1.8601    -0.0233 C.3     
   9 O9             1.8159    -2.3078    -1.3740 O.3     
  10 C10            2.2184    -3.5929    -1.5623 C.ar    
  11 C11            2.3657    -4.0921    -2.8486 C.ar    
  12 C12            2.4870    -4.4024    -0.4685 C.ar    
  13 C13            2.8960    -5.7079    -0.6586 C.ar    
  14 C14            3.0380    -6.2096    -1.9450 C.ar    
  15 C15            2.7741    -5.3966    -3.0397 C.ar    
  16 C16            1.5695     6.0866    -1.1771 C.ar    
  17 C17            1.5883     6.0763     1.2176 C.ar    
  18 C18            2.2064     7.3124     1.2196 C.ar    
  19 C19            2.5069     7.9375     0.0225 C.ar    
  20 C20            2.1882     7.3240    -1.1769 C.ar    
  21 Cl21           3.2828     9.4905     0.0245 Cl      
  22 Cl22           2.5651     8.1067    -2.6799 Cl      
  23 N23            3.4520    -7.5327    -2.1418 N.am    
  24 C24            3.9456    -7.9228    -3.3314 C.2     
  25 C25            4.0805    -6.9444    -4.4669 C.3     
  26 C26            2.9283    -5.9444    -4.4347 C.3     
  27 C27            0.5904     4.1185     0.0191 C.3     
  28 C28            3.3475    -8.4987    -1.0453 C.3     
  29 O29            4.2861    -9.0761    -3.4900 O.2     
  30 H30            2.5452     3.2900    -0.0049 H       
  31 H31            2.6479    -1.9425     0.4815 H       
  32 H32            0.9499    -2.4762     0.4942 H       
  33 H33            2.1605    -3.4601    -3.7000 H       
  34 H34            2.3766    -4.0116     0.5322 H       
  35 H35            3.1056    -6.3378     0.1932 H       
  36 H36            1.3208     5.6073    -2.1124 H       
  37 H37            1.3535     5.5888     2.1523 H       
  38 H38            2.4544     7.7906     2.1557 H       
  39 H39            5.0243    -6.4075    -4.3720 H       
  40 H40            4.0665    -7.4845    -5.4136 H       
  41 H41            2.0057    -6.4437    -4.7307 H       
  42 H42            3.1368    -5.1278    -5.1260 H       
  43 H43           -0.0409     4.0308    -0.8651 H       
  44 H44           -0.0232     4.0210     0.9147 H       
  45 H45            2.3745    -8.9884    -1.0840 H       
  46 H46            4.1347    -9.2462    -1.1434 H       
  47 H47            3.4557    -7.9800    -0.0927 H       
@<TRIPOS>BOND
   1    1    2 1
   2    1    3 2
   3    2    5 2
   4    3    4 1
   5    3    6 1
   6    4    5 1
   7    5    8 1
   8    6   27 1
   9    6   30 1
  10    7   16 ar
  11    7   17 ar
  12    7   27 1
  13    8    9 1
  14    8   31 1
  15    8   32 1
  16    9   10 1
  17   10   11 ar
  18   10   12 ar
  19   11   15 ar
  20   11   33 1
  21   12   13 ar
  22   12   34 1
  23   13   14 ar
  24   13   35 1
  25   14   15 ar
  26   14   23 1
  27   15   26 1
  28   16   20 ar
  29   16   36 1
  30   17   18 ar
  31   17   37 1
  32   18   19 ar
  33   18   38 1
  34   19   20 ar
  35   19   21 1
  36   20   22 1
  37   23   24 am
  38   23   28 1
  39   24   25 1
  40   24   29 2
  41   25   26 1
  42   25   39 1
  43   25   40 1
  44   26   41 1
  45   26   42 1
  46   27   43 1
  47   27   44 1
  48   28   45 1
  49   28   46 1
  50   28   47 1

#	End of record

