#	Name: ASD01200014
#	Creating user name:	WinNT
#	Creation time:	15. 06. 2019 19:08

#	Modifying user name:	WinNT
#	Modification time:	15. 06. 2019 19:08

#	Program:	/corina/corina34_cracker 3.40 0067  02.08.2006

@<TRIPOS>MOLECULE
ASD01200014
  54   56    0    0    0
SMALL
NO_CHARGES


@<TRIPOS>ATOM
   1 C1            -0.0448     1.2490     0.0072 C.2     
   2 N2            -0.0304    -0.0986     0.0107 N.am    
   3 C3             1.1700    -0.7804    -0.1386 C.ar    
   4 O4             1.0005     1.8679    -0.0306 O.2     
   5 C5            -1.3323     1.9744     0.0433 C.ar    
   6 C6            -1.3496     3.3696     0.0397 C.ar    
   7 C7            -2.5584     4.0454     0.0731 C.ar    
   8 C8            -3.7505     3.3372     0.1105 C.ar    
   9 C9            -3.7380     1.9495     0.1142 C.ar    
  10 C10           -2.5341     1.2658     0.0751 C.ar    
  11 C11            1.1898    -2.1682    -0.0246 C.ar    
  12 C12            2.3752    -2.8379    -0.1729 C.ar    
  13 C13            3.5353    -2.0942    -0.4365 C.ar    
  14 C14            3.4409    -0.7044    -0.5378 C.ar    
  15 N15            2.2798    -0.1013    -0.3932 N.ar    
  16 O16           -2.5763     5.4044     0.0696 O.3     
  17 C17           -3.8542     6.0361    -0.0305 C.3     
  18 C18           -4.3789     6.3506     1.3718 C.3     
  19 C19           -3.7199     7.3349    -0.8280 C.3     
  20 O20           -4.9088     1.2604     0.1513 O.3     
  21 C21           -5.2675     0.6768     1.3224 C.ar    
  22 C22           -6.5038     0.0531     1.4297 C.ar    
  23 C23           -6.8574    -0.5390     2.6299 C.ar    
  24 C24           -5.9573    -0.4857     3.6849 C.ar    
  25 C25           -4.7450     0.1515     3.5072 C.ar    
  26 N26           -4.4340     0.7025     2.3495 N.ar    
  27 S27           -6.3571    -1.2226     5.2347 S.o2    
  28 O28           -5.5891    -0.4900     6.1796 O.2     
  29 O29           -7.7774    -1.2061     5.2745 O.2     
  30 C30           -5.7438    -2.9244     5.0983 C.3     
  31 C31            4.8354    -2.7699    -0.6036 C.2     
  32 O32            4.9074    -3.9794    -0.5132 O.2     
  33 O33            5.9434    -2.0459    -0.8564 O.3     
  34 H34           -0.8585    -0.5923     0.1176 H       
  35 H35           -0.4219     3.9218     0.0113 H       
  36 H36           -4.6911     3.8672     0.1371 H       
  37 H37           -2.5252     0.1858     0.0777 H       
  38 H38            0.2788    -2.7113     0.1793 H       
  39 H39            2.4161    -3.9138    -0.0885 H       
  40 H40            4.3266    -0.1204    -0.7400 H       
  41 H41           -4.5507     5.3686    -0.5379 H       
  42 H42           -5.3536     6.8324     1.2954 H       
  43 H43           -4.4746     5.4253     1.9399 H       
  44 H44           -3.6824     7.0181     1.8792 H       
  45 H45           -3.3461     7.1109    -1.8271 H       
  46 H46           -4.6946     7.8168    -0.9044 H       
  47 H47           -3.0234     8.0024    -0.3206 H       
  48 H48           -7.1803     0.0306     0.5882 H       
  49 H49           -7.8122    -1.0309     2.7429 H       
  50 H50           -4.0411     0.1961     4.3251 H       
  51 H51           -4.6686    -2.9099     4.9199 H       
  52 H52           -5.9513    -3.4606     6.0243 H       
  53 H53           -6.2430    -3.4251     4.2688 H       
  54 H54            6.7724    -2.5332    -0.9582 H       
@<TRIPOS>BOND
   1    1    2 am
   2    1    4 2
   3    1    5 1
   4    2    3 1
   5    2   34 1
   6    3   11 ar
   7    3   15 ar
   8    5    6 ar
   9    5   10 ar
  10    6    7 ar
  11    6   35 1
  12    7    8 ar
  13    7   16 1
  14    8    9 ar
  15    8   36 1
  16    9   10 ar
  17    9   20 1
  18   10   37 1
  19   11   12 ar
  20   11   38 1
  21   12   13 ar
  22   12   39 1
  23   13   14 ar
  24   13   31 1
  25   14   15 ar
  26   14   40 1
  27   16   17 1
  28   17   18 1
  29   17   19 1
  30   17   41 1
  31   18   42 1
  32   18   43 1
  33   18   44 1
  34   19   45 1
  35   19   46 1
  36   19   47 1
  37   20   21 1
  38   21   22 ar
  39   21   26 ar
  40   22   23 ar
  41   22   48 1
  42   23   24 ar
  43   23   49 1
  44   24   25 ar
  45   24   27 1
  46   25   26 ar
  47   25   50 1
  48   27   28 2
  49   27   29 2
  50   27   30 1
  51   30   51 1
  52   30   52 1
  53   30   53 1
  54   31   32 2
  55   31   33 1
  56   33   54 1

#	End of record

