#	Name: ASD01000005
#	Creating user name:	WinNT
#	Creation time:	15. 06. 2019 18:54

#	Modifying user name:	WinNT
#	Modification time:	15. 06. 2019 18:54

#	Program:	/corina/corina34_cracker 3.40 0067  02.08.2006

@<TRIPOS>MOLECULE
ASD01000005
  36   37    0    0    0
SMALL
NO_CHARGES


@<TRIPOS>ATOM
   1 C1            -0.0515     1.3990     0.2723 C.ar    
   2 C2            -0.0078     0.0204     0.1785 C.ar    
   3 C3             1.2066    -0.6396     0.2202 C.ar    
   4 C4             2.3794     0.0773     0.3558 C.ar    
   5 C5             2.3383     1.4611     0.4497 C.ar    
   6 C6             1.1188     2.1208     0.4076 C.ar    
   7 O7             3.4908     2.1687     0.5836 O.3     
   8 C8             1.2505    -2.1425     0.1182 C.3     
   9 N9             0.2587    -2.5585    -0.8878 N.am    
  10 C10            1.0918    -2.7104     1.5141 C.2     
  11 C11            0.0591    -3.5525     1.7365 C.2     
  12 N12           -0.8105    -3.8799     0.7371 N.am    
  13 C13           -0.7179    -3.4079    -0.5124 C.2     
  14 C14            1.9943    -2.3709     2.5486 C.2     
  15 O15            3.0930    -1.6379     2.2719 O.3     
  16 C16           -0.1356    -4.1400     3.1105 C.3     
  17 O17            1.7800    -2.7397     3.6882 O.2     
  18 C18            3.9609    -1.3318     3.3651 C.3     
  19 C19            5.1425    -0.5006     2.8610 C.3     
  20 S20           -1.8778    -3.9001    -1.6715 S.2     
  21 H21           -1.0009     1.9125     0.2353 H       
  22 H22           -0.9237    -0.5420     0.0728 H       
  23 H23            3.3276    -0.4387     0.3891 H       
  24 H24            1.0843     3.1978     0.4801 H       
  25 H25            3.8886     2.4351    -0.2566 H       
  26 H26            2.2383    -2.4228    -0.2478 H       
  27 H27            0.3071    -2.2287    -1.7987 H       
  28 H28           -1.5369    -4.4887     0.9438 H       
  29 H29           -0.6892    -3.4360     3.7317 H       
  30 H30           -0.6948    -5.0723     3.0311 H       
  31 H31            0.8366    -4.3369     3.5625 H       
  32 H32            3.4122    -0.7646     4.1169 H       
  33 H33            4.3300    -2.2577     3.8062 H       
  34 H34            4.7734     0.4252     2.4198 H       
  35 H35            5.8045    -0.2672     3.6949 H       
  36 H36            5.6912    -1.0679     2.1092 H       
@<TRIPOS>BOND
   1    1    2 ar
   2    1    6 ar
   3    1   21 1
   4    2    3 ar
   5    2   22 1
   6    3    4 ar
   7    3    8 1
   8    4    5 ar
   9    4   23 1
  10    5    6 ar
  11    5    7 1
  12    6   24 1
  13    7   25 1
  14    8    9 1
  15    8   10 1
  16    8   26 1
  17    9   13 am
  18    9   27 1
  19   10   11 2
  20   10   14 1
  21   11   12 1
  22   11   16 1
  23   12   13 am
  24   12   28 1
  25   13   20 2
  26   14   15 1
  27   14   17 2
  28   15   18 1
  29   16   29 1
  30   16   30 1
  31   16   31 1
  32   18   19 1
  33   18   32 1
  34   18   33 1
  35   19   34 1
  36   19   35 1
  37   19   36 1

#	End of record

