#	Name: ASD04590521
#	Creating user name:	WinNT
#	Creation time:	15. 06. 2019 20:51

#	Modifying user name:	WinNT
#	Modification time:	15. 06. 2019 20:51

#	Program:	/corina/corina34_cracker 3.40 0067  02.08.2006

@<TRIPOS>MOLECULE
ASD04590521
  44   47    0    0    0
SMALL
NO_CHARGES


@<TRIPOS>ATOM
   1 C1            -0.0084     1.3767     0.2117 C.ar    
   2 C2             0.0078    -0.0193     0.2017 C.ar    
   3 C3            -2.3954    -0.0484     0.1601 C.ar    
   4 C4            -2.4057     1.3571     0.1809 C.ar    
   5 C5            -1.2097     2.0606     0.2013 C.ar    
   6 N6            -3.6880    -0.4589     0.1432 N.2     
   7 C7            -4.4821     0.5840     0.1520 C.2     
   8 N8            -3.7371     1.7332     0.1753 N.pl3   
   9 C9            -5.9585     0.5284     0.1389 C.2     
  10 C10           -6.7459    -0.6459     0.1153 C.2     
  11 C11           -8.0482    -0.2703     0.1098 C.2     
  12 N12           -8.0900     1.0880     0.1291 N.pl3   
  13 N13           -6.7734     1.5649     0.1528 N.2     
  14 N14           -6.2647    -1.9653     0.0996 N.am    
  15 C15           -7.1303    -2.9981     0.0776 C.2     
  16 O16           -8.3258    -2.7920     0.1720 O.2     
  17 C17           -1.1737    -0.7303     0.1761 C.ar    
  18 C18           -6.6299    -4.3741    -0.0607 C.2     
  19 C19           -7.4988    -5.4583     0.0450 C.2     
  20 O20            1.1958    -0.6820     0.2168 O.3     
  21 C21            1.1423    -2.1100     0.2054 C.3     
  22 O22            1.1633     2.0670     0.2374 O.3     
  23 C23            1.0759     3.4933     0.2464 C.3     
  24 C24           -6.9877    -6.7496    -0.0918 C.2     
  25 C25           -5.6624    -6.9369    -0.3237 C.2     
  26 N26           -4.8124    -5.8868    -0.4271 N.am    
  27 C27           -5.2551    -4.6205    -0.3098 C.2     
  28 Cl28          -8.0472    -8.1189     0.0353 Cl      
  29 O29           -4.4748    -3.6889    -0.4059 O.2     
  30 H30           -1.2175     3.1406     0.2095 H       
  31 H31           -4.0790     2.6409     0.1865 H       
  32 H32           -8.9011    -0.9326     0.0926 H       
  33 H33           -8.8927     1.6327     0.1302 H       
  34 H34           -5.3094    -2.1332     0.1047 H       
  35 H35           -1.1559    -1.8101     0.1681 H       
  36 H36           -8.5512    -5.3018     0.2302 H       
  37 H37            0.6303    -2.4472    -0.6958 H       
  38 H38            2.1555    -2.5117     0.2196 H       
  39 H39            0.6003    -2.4603     1.0839 H       
  40 H40            0.5252     3.8180     1.1292 H       
  41 H41            2.0792     3.9187     0.2672 H       
  42 H42            0.5565     3.8311    -0.6504 H       
  43 H43           -5.2792    -7.9413    -0.4273 H       
  44 H44           -3.8707    -6.0497    -0.5927 H       
@<TRIPOS>BOND
   1    1    2 ar
   2    1   22 1
   3    1    5 ar
   4    2   17 ar
   5    2   20 1
   6    3    4 ar
   7    3    6 1
   8    3   17 ar
   9    4    5 ar
  10    4    8 1
  11    5   30 1
  12    6    7 2
  13    7    8 1
  14    7    9 1
  15    8   31 1
  16    9   10 1
  17    9   13 2
  18   10   11 2
  19   10   14 1
  20   11   12 1
  21   11   32 1
  22   12   13 1
  23   12   33 1
  24   14   15 am
  25   14   34 1
  26   15   16 2
  27   15   18 1
  28   17   35 1
  29   18   19 2
  30   18   27 1
  31   19   24 1
  32   19   36 1
  33   20   21 1
  34   21   37 1
  35   21   38 1
  36   21   39 1
  37   22   23 1
  38   23   40 1
  39   23   41 1
  40   23   42 1
  41   24   25 2
  42   24   28 1
  43   25   26 1
  44   25   43 1
  45   26   27 am
  46   26   44 1
  47   27   29 2

#	End of record

