#	Name: ASD03731667
#	Creating user name:	WinNT
#	Creation time:	15. 06. 2019 20:46

#	Modifying user name:	WinNT
#	Modification time:	15. 06. 2019 20:46

#	Program:	/corina/corina34_cracker 3.40 0067  02.08.2006

@<TRIPOS>MOLECULE
ASD03731667
  33   34    0    0    0
SMALL
NO_CHARGES


@<TRIPOS>ATOM
   1 C1            -0.4032     1.1038    -1.9610 C.2     
   2 C2            -0.2819    -0.2742    -1.4505 C.ar    
   3 C3             0.9018    -0.9947    -1.6488 C.ar    
   4 C4             1.0107    -2.2843    -1.1686 C.ar    
   5 C5            -0.0518    -2.8664    -0.4904 C.ar    
   6 C6            -1.2311    -2.1532    -0.2915 C.ar    
   7 C7            -1.3467    -0.8631    -0.7619 C.ar    
   8 O8             0.5259     1.6160    -2.5553 O.2     
   9 N9            -1.5458     1.7937    -1.7738 N.am    
  10 S10           -1.6820     3.3413    -2.3471 S.o2    
  11 O11           -2.9842     3.7487    -1.9501 O.2     
  12 O12           -0.5251     4.0014    -1.8522 O.2     
  13 C13           -1.5922     3.1655    -4.1504 C.3     
  14 F14           -2.2620    -2.7252     0.3684 F       
  15 F15            1.9357    -0.4291    -2.3094 F       
  16 O16            0.0593    -4.1350    -0.0202 O.3     
  17 C17            1.2617    -4.7566    -0.1396 C.ar    
  18 C18            2.2126    -4.6274     0.8623 C.ar    
  19 C19            3.4364    -5.2614     0.7395 C.ar    
  20 C20            3.7122    -6.0244    -0.3825 C.ar    
  21 C21            2.7641    -6.1542    -1.3832 C.ar    
  22 C22            1.5374    -5.5257    -1.2608 C.ar    
  23 F23            3.0348    -6.8991    -2.4773 F       
  24 F24            4.3628    -5.1354     1.7148 F       
  25 H25            1.9233    -2.8412    -1.3209 H       
  26 H26           -2.2601    -0.3093    -0.6027 H       
  27 H27           -2.2883     1.3836    -1.3032 H       
  28 H28           -2.4086     2.5307    -4.4947 H       
  29 H29           -1.6746     4.1477    -4.6157 H       
  30 H30           -0.6393     2.7125    -4.4242 H       
  31 H31            1.9979    -4.0320     1.7374 H       
  32 H32            4.6678    -6.5184    -0.4774 H       
  33 H33            0.7966    -5.6304    -2.0396 H       
@<TRIPOS>BOND
   1    1    2 1
   2    1    8 2
   3    1    9 am
   4    2    3 ar
   5    2    7 ar
   6    3    4 ar
   7    3   15 1
   8    4    5 ar
   9    4   25 1
  10    5    6 ar
  11    5   16 1
  12    6    7 ar
  13    6   14 1
  14    7   26 1
  15    9   10 am
  16    9   27 1
  17   10   11 2
  18   10   12 2
  19   10   13 1
  20   13   28 1
  21   13   29 1
  22   13   30 1
  23   16   17 1
  24   17   18 ar
  25   17   22 ar
  26   18   19 ar
  27   18   31 1
  28   19   20 ar
  29   19   24 1
  30   20   21 ar
  31   20   32 1
  32   21   22 ar
  33   21   23 1
  34   22   33 1

#	End of record

