#	Name: ASD03330877
#	Creating user name:	WinNT
#	Creation time:	15. 06. 2019 20:38

#	Modifying user name:	WinNT
#	Modification time:	15. 06. 2019 20:38

#	Program:	/corina/corina34_cracker 3.40 0067  02.08.2006

@<TRIPOS>MOLECULE
ASD03330877
  52   54    0    0    0
SMALL
NO_CHARGES


@<TRIPOS>ATOM
   1 C1            -0.0135     0.7098     1.7925 C.ar    
   2 C2             0.0301    -0.7061     1.3665 C.2     
   3 N3            -0.9570    -1.6241     1.5574 N.pl3   
   4 C4            -0.5275    -2.8016     1.0233 C.2     
   5 C5             0.7124    -2.5835     0.5142 C.2     
   6 N6             1.0253    -1.2867     0.7357 N.2     
   7 C7             1.5618    -3.5794    -0.1628 C.2     
   8 N8             2.7785    -3.2263    -0.6224 N.am    
   9 C9            -0.9357     1.1230     2.7544 C.ar    
  10 O10            1.1648    -4.7199    -0.3067 O.2     
  11 C11            3.6230    -4.2163    -1.2955 C.3     
  12 C12            3.2455    -4.2861    -2.7765 C.3     
  13 C13            5.0696    -3.8151    -1.1641 C.2     
  14 C14            1.8187    -4.8209    -2.9146 C.3     
  15 C15            3.3273    -2.8868    -3.3901 C.3     
  16 C16           -2.2564    -1.4348     2.2069 C.3     
  17 C17           -3.1791    -2.5921     1.8086 C.3     
  18 C18           -2.4649    -3.9257     2.0465 C.3     
  19 C19           -1.3270    -4.0793     1.0281 C.3     
  20 O20            5.3595    -2.6640    -0.9154 O.2     
  21 C21           -0.9720     2.4465     3.1484 C.ar    
  22 C22           -0.0934     3.3631     2.5883 C.ar    
  23 C23            0.8231     2.9558     1.6325 C.ar    
  24 C24            0.8714     1.6351     1.2377 C.ar    
  25 F25           -0.1323     4.6567     2.9759 F       
  26 F26           -1.8641     2.8490     4.0797 F       
  27 N27            6.0413    -4.7355    -1.3229 N.am    
  28 C28            7.4405    -4.3718    -1.0859 C.3     
  29 H29            3.0952    -2.3166    -0.5076 H       
  30 H30           -1.6199     0.4098     3.1897 H       
  31 H31            3.4738    -5.1935    -0.8361 H       
  32 H32            3.9349    -4.9515    -3.2962 H       
  33 H33            1.1182    -4.1005    -2.4924 H       
  34 H34            1.5892    -4.9759    -3.9688 H       
  35 H35            1.7323    -5.7674    -2.3810 H       
  36 H36            4.3438    -2.5058    -3.2917 H       
  37 H37            3.0584    -2.9365    -4.4452 H       
  38 H38            2.6379    -2.2214    -2.8704 H       
  39 H39           -2.1265    -1.4268     3.2890 H       
  40 H40           -2.6934    -0.4906     1.8819 H       
  41 H41           -4.0877    -2.5550     2.4094 H       
  42 H42           -3.4385    -2.5027     0.7537 H       
  43 H43           -2.0547    -3.9438     3.0561 H       
  44 H44           -3.1740    -4.7448     1.9263 H       
  45 H45           -1.7422    -4.2574     0.0361 H       
  46 H46           -0.6864    -4.9133     1.3148 H       
  47 H47            1.5043     3.6731     1.1991 H       
  48 H48            1.5866     1.3195     0.4925 H       
  49 H49            5.8142    -5.6387    -1.5941 H       
  50 H50            7.7266    -3.5673    -1.7634 H       
  51 H51            7.5597    -4.0383    -0.0550 H       
  52 H52            8.0764    -5.2393    -1.2629 H       
@<TRIPOS>BOND
   1    1    2 1
   2    1    9 ar
   3    1   24 ar
   4    2    3 1
   5    2    6 2
   6    3    4 1
   7    3   16 1
   8    4    5 2
   9    4   19 1
  10    5    6 1
  11    5    7 1
  12    7    8 am
  13    7   10 2
  14    8   11 1
  15    8   29 1
  16    9   21 ar
  17    9   30 1
  18   11   12 1
  19   11   13 1
  20   11   31 1
  21   12   14 1
  22   12   15 1
  23   12   32 1
  24   13   20 2
  25   13   27 am
  26   14   33 1
  27   14   34 1
  28   14   35 1
  29   15   36 1
  30   15   37 1
  31   15   38 1
  32   16   17 1
  33   16   39 1
  34   16   40 1
  35   17   18 1
  36   17   41 1
  37   17   42 1
  38   18   19 1
  39   18   43 1
  40   18   44 1
  41   19   45 1
  42   19   46 1
  43   21   22 ar
  44   21   26 1
  45   22   23 ar
  46   22   25 1
  47   23   24 ar
  48   23   47 1
  49   24   48 1
  50   27   28 1
  51   27   49 1
  52   28   50 1
  53   28   51 1
  54   28   52 1

#	End of record

