#	Name: ASD01915257
#	Creating user name:	WinNT
#	Creation time:	15. 06. 2019 20:05

#	Modifying user name:	WinNT
#	Modification time:	15. 06. 2019 20:05

#	Program:	/corina/corina34_cracker 3.40 0067  02.08.2006

@<TRIPOS>MOLECULE
ASD01915257
  47   49    0    0    0
SMALL
NO_CHARGES


@<TRIPOS>ATOM
   1 C1             0.4751     1.9493     1.4034 C.ar    
   2 C2             0.5351     0.5765     1.5884 C.ar    
   3 C3            -0.6388    -0.1312     1.7647 C.ar    
   4 N4            -1.8050     0.4844     1.7579 N.ar    
   5 C5            -1.9000     1.7882     1.5847 C.ar    
   6 C6            -0.7686     2.5621     1.4080 C.ar    
   7 C7             1.7323     2.7571     1.2082 C.3     
   8 O8             2.0407     2.8291    -0.1852 O.3     
   9 C9             3.2216     3.5773    -0.4813 C.3     
  10 C10            3.4496     3.5874    -1.9709 C.2     
  11 N11            4.5122     4.2374    -2.4856 N.am    
  12 O12            2.6769     3.0107    -2.7066 O.2     
  13 C13            4.7534     4.2598    -3.9363 C.3     
  14 C14            4.9608     5.7139    -4.3729 C.3     
  15 N15            6.0218     6.3201    -3.5574 N.3     
  16 C16            5.6411     6.3703    -2.1395 C.3     
  17 C17            5.4581     4.9482    -1.6119 C.3     
  18 C18            6.3535     7.5918    -4.0322 C.ar    
  19 C19            5.4155     8.6151    -3.9942 C.ar    
  20 C20            5.7462     9.8712    -4.4642 C.ar    
  21 C21            7.0106    10.1103    -4.9726 C.ar    
  22 C22            7.9473     9.0922    -5.0121 C.ar    
  23 C23            7.6241     7.8362    -4.5379 C.ar    
  24 Cl24           7.4227    11.6901    -5.5625 Cl      
  25 C25            8.6447     6.7282    -4.5808 C.3     
  26 H26            1.4871     0.0667     1.5942 H       
  27 H27           -0.6006    -1.2007     1.9094 H       
  28 H28           -2.8728     2.2572     1.5848 H       
  29 H29           -0.8529     3.6295     1.2670 H       
  30 H30            1.5821     3.7633     1.5995 H       
  31 H31            2.5565     2.2803     1.7386 H       
  32 H32            3.1023     4.6005    -0.1250 H       
  33 H33            4.0768     3.1175     0.0141 H       
  34 H34            5.6449     3.6771    -4.1683 H       
  35 H35            3.8926     3.8404    -4.4571 H       
  36 H36            5.2496     5.7406    -5.4236 H       
  37 H37            4.0338     6.2706    -4.2358 H       
  38 H38            6.4232     6.8729    -1.5705 H       
  39 H39            4.7046     6.9178    -2.0335 H       
  40 H40            5.0655     4.9823    -0.5956 H       
  41 H41            6.4162     4.4285    -1.6200 H       
  42 H42            4.4283     8.4290    -3.5978 H       
  43 H43            5.0169    10.6673    -4.4352 H       
  44 H44            8.9333     9.2814    -5.4101 H       
  45 H45            9.1581     6.6697    -3.6210 H       
  46 H46            8.1446     5.7812    -4.7836 H       
  47 H47            9.3697     6.9323    -5.3687 H       
@<TRIPOS>BOND
   1    1    2 ar
   2    1    7 1
   3    1    6 ar
   4    2    3 ar
   5    2   26 1
   6    3    4 ar
   7    3   27 1
   8    4    5 ar
   9    5    6 ar
  10    5   28 1
  11    6   29 1
  12    7    8 1
  13    7   30 1
  14    7   31 1
  15    8    9 1
  16    9   10 1
  17    9   32 1
  18    9   33 1
  19   10   11 am
  20   10   12 2
  21   11   13 1
  22   11   17 1
  23   13   14 1
  24   13   34 1
  25   13   35 1
  26   14   15 1
  27   14   36 1
  28   14   37 1
  29   15   16 1
  30   15   18 1
  31   16   17 1
  32   16   38 1
  33   16   39 1
  34   17   40 1
  35   17   41 1
  36   18   19 ar
  37   18   23 ar
  38   19   20 ar
  39   19   42 1
  40   20   21 ar
  41   20   43 1
  42   21   22 ar
  43   21   24 1
  44   22   23 ar
  45   22   44 1
  46   23   25 1
  47   25   45 1
  48   25   46 1
  49   25   47 1

#	End of record

