#	Name: ASD02198408
#	Creating user name:	WinNT
#	Creation time:	15. 06. 2019 20:19

#	Modifying user name:	WinNT
#	Modification time:	15. 06. 2019 20:19

#	Program:	/corina/corina34_cracker 3.40 0067  02.08.2006

@<TRIPOS>MOLECULE
ASD02198408
  35   38    0    0    0
SMALL
NO_CHARGES


@<TRIPOS>ATOM
   1 C1            -0.2139     1.0719    -0.3399 C.2     
   2 C2            -0.1174    -0.2752    -0.3553 C.2     
   3 S3             1.3947     1.7724    -0.2167 S.3     
   4 C4             2.1240     0.1724    -0.1923 C.2     
   5 C5             1.1710    -0.7607    -0.2738 C.2     
   6 S6             3.8521    -0.1517    -0.0781 S.o2    
   7 N7             4.4421    -0.2156    -1.6241 N.am    
   8 C8             4.3249     0.8932    -2.4613 C.ar    
   9 C9             4.0853     0.7199    -3.8423 C.ar    
  10 C10            3.9701     1.8639    -4.6691 C.ar    
  11 C11            4.0955     3.1448    -4.1076 C.ar    
  12 C12            4.3270     3.2815    -2.7724 C.ar    
  13 C13            4.4364     2.1667    -1.9468 C.ar    
  14 N14            3.9674    -0.4999    -4.3734 N.ar    
  15 C15            3.7453    -0.6672    -5.6544 C.ar    
  16 C16            3.6218     0.4145    -6.5240 C.ar    
  17 C17            3.7311     1.6890    -6.0457 C.ar    
  18 O18            4.4361     0.9936     0.5273 O.2     
  19 O19            3.9801    -1.4628     0.4547 O.2     
  20 C20           -1.4700     1.8354    -0.4202 C.2     
  21 O21           -2.7180     1.3259    -0.5207 O.3     
  22 C22           -1.5989     3.1898    -0.4016 C.2     
  23 N23           -2.9068     3.4716    -0.4960 N.2     
  24 C24           -3.5761     2.3554    -0.5673 C.2     
  25 H25           -0.9804    -0.9208    -0.4256 H       
  26 H26            1.3933    -1.8176    -0.2754 H       
  27 H27            4.8693    -1.0243    -1.9472 H       
  28 H28            4.0089     4.0204    -4.7338 H       
  29 H29            4.4228     4.2697    -2.3475 H       
  30 H30            4.6198     2.3010    -0.8910 H       
  31 H31            3.6560    -1.6697    -6.0462 H       
  32 H32            3.4396     0.2452    -7.5749 H       
  33 H33            3.6378     2.5391    -6.7052 H       
  34 H34           -0.7950     3.9068    -0.3243 H       
  35 H35           -4.6497     2.2729    -0.6508 H       
@<TRIPOS>BOND
   1    1    2 2
   2    1    3 1
   3    1   20 1
   4    2    5 1
   5    2   25 1
   6    3    4 1
   7    4    5 2
   8    4    6 1
   9    5   26 1
  10    6    7 am
  11    6   18 2
  12    6   19 2
  13    7    8 1
  14    7   27 1
  15    8    9 ar
  16    8   13 ar
  17    9   10 ar
  18    9   14 ar
  19   10   11 ar
  20   10   17 ar
  21   11   12 ar
  22   11   28 1
  23   12   13 ar
  24   12   29 1
  25   13   30 1
  26   14   15 ar
  27   15   16 ar
  28   15   31 1
  29   16   17 ar
  30   16   32 1
  31   17   33 1
  32   20   21 1
  33   20   22 2
  34   21   24 1
  35   22   23 1
  36   22   34 1
  37   23   24 2
  38   24   35 1

#	End of record

