#	Name: ASD05720214
#	Creating user name:	WinNT
#	Creation time:	15. 06. 2019 21:02

#	Modifying user name:	WinNT
#	Modification time:	15. 06. 2019 21:02

#	Program:	/corina/corina34_cracker 3.40 0067  02.08.2006

@<TRIPOS>MOLECULE
ASD05720214
  51   56    0    0    0
SMALL
NO_CHARGES


@<TRIPOS>ATOM
   1 O1             0.0807     1.1447    -1.9149 O.3     
   2 C2             0.1251    -0.1921    -1.9257 C.2     
   3 N3             1.3494    -0.6955    -1.7175 N.am    
   4 C4             2.2962     0.4154    -1.5355 C.3     
   5 C5             1.4167     1.6732    -1.6726 C.3     
   6 O6            -0.8551    -0.8866    -2.1078 O.2     
   7 C7             3.3546     0.3901    -2.6079 C.ar    
   8 C8             4.5863     0.9686    -2.3652 C.ar    
   9 C9             5.5536     0.9405    -3.3573 C.ar    
  10 C10            5.2440     0.3277    -4.5645 C.ar    
  11 C11            3.9885    -0.2302    -4.7341 C.ar    
  12 N12            3.0960    -0.1883    -3.7642 N.ar    
  13 F13            6.1557     0.2770    -5.5602 F       
  14 C14            3.2460    -3.7153    -1.4238 C.2     
  15 N15            2.9189    -2.4202    -1.4644 N.2     
  16 C16            1.6716    -2.0456    -1.6789 C.2     
  17 C17            0.6664    -3.0155    -1.8685 C.2     
  18 C18            0.9942    -4.3271    -1.8280 C.2     
  19 N19            2.2947    -4.6840    -1.6038 N.pl3   
  20 N20            2.9251    -5.9298    -1.5092 N.2     
  21 C21            4.2031    -5.7523    -1.2821 C.2     
  22 C22            4.4652    -4.3776    -1.2238 C.2     
  23 C23            5.7816    -3.7435    -0.9929 C.ar    
  24 C24            6.5770    -4.1568     0.0777 C.ar    
  25 C25            7.8040    -3.5661     0.2925 C.ar    
  26 C26            8.2506    -2.5528    -0.5630 C.ar    
  27 C27            7.4529    -2.1413    -1.6331 C.ar    
  28 C28            6.2308    -2.7356    -1.8493 C.ar    
  29 N29            9.8203    -0.5890    -0.3350 N.pl3   
  30 N30           11.1936    -0.4524    -0.0752 N.2     
  31 C31           11.6787    -1.6588     0.0638 C.2     
  32 N32           10.6993    -2.5455    -0.0917 N.2     
  33 C33            9.5651    -1.9183    -0.3341 C.2     
  34 C34            8.8558     0.4912    -0.5563 C.3     
  35 F35            8.5743    -3.9649     1.3282 F       
  36 H36            2.7513     0.3725    -0.5459 H       
  37 H37            1.7464     2.2799    -2.5160 H       
  38 H38            1.4360     2.2553    -0.7512 H       
  39 H39            4.7923     1.4370    -1.4141 H       
  40 H40            6.5246     1.3848    -3.1957 H       
  41 H41            3.7387    -0.7089    -5.6694 H       
  42 H42           -0.3558    -2.7142    -2.0440 H       
  43 H43            0.2370    -5.0839    -1.9707 H       
  44 H44            4.9352    -6.5373    -1.1630 H       
  45 H45            6.2310    -4.9387     0.7374 H       
  46 H46            7.7971    -1.3591    -2.2934 H       
  47 H47            5.6166    -2.4198    -2.6797 H       
  48 H48           12.7113    -1.8976     0.2714 H       
  49 H49            8.7410     0.6622    -1.6266 H       
  50 H50            7.8932     0.2123    -0.1276 H       
  51 H51            9.2155     1.4029    -0.0792 H       
@<TRIPOS>BOND
   1    1    2 1
   2    1    5 1
   3    2    3 am
   4    2    6 2
   5    3    4 1
   6    3   16 1
   7    4    5 1
   8    4    7 1
   9    4   36 1
  10    5   37 1
  11    5   38 1
  12    7    8 ar
  13    7   12 ar
  14    8    9 ar
  15    8   39 1
  16    9   10 ar
  17    9   40 1
  18   10   11 ar
  19   10   13 1
  20   11   12 ar
  21   11   41 1
  22   14   15 1
  23   14   19 1
  24   14   22 2
  25   15   16 2
  26   16   17 1
  27   17   18 2
  28   17   42 1
  29   18   19 1
  30   18   43 1
  31   19   20 1
  32   20   21 2
  33   21   22 1
  34   21   44 1
  35   22   23 1
  36   23   24 ar
  37   23   28 ar
  38   24   25 ar
  39   24   45 1
  40   25   26 ar
  41   25   35 1
  42   26   27 ar
  43   26   33 1
  44   27   28 ar
  45   27   46 1
  46   28   47 1
  47   29   30 1
  48   29   33 1
  49   29   34 1
  50   30   31 2
  51   31   32 1
  52   31   48 1
  53   32   33 2
  54   34   49 1
  55   34   50 1
  56   34   51 1

#	End of record

