#	Name: ASD01142010
#	Creating user name:	WinNT
#	Creation time:	15. 06. 2019 19:01

#	Modifying user name:	WinNT
#	Modification time:	15. 06. 2019 19:01

#	Program:	/corina/corina34_cracker 3.40 0067  02.08.2006

@<TRIPOS>MOLECULE
ASD01142010
  45   47    0    0    0
SMALL
NO_CHARGES


@<TRIPOS>ATOM
   1 C1             0.0938     0.8974     1.0478 C.ar    
   2 C2             0.3012    -0.4781     1.0187 C.ar    
   3 C3             1.5341    -1.0022     0.6496 C.ar    
   4 C4             2.5824    -0.1227     0.3012 C.ar    
   5 C5             2.3484     1.2730     0.3375 C.ar    
   6 C6             1.0934     1.7645     0.7148 C.ar    
   7 C7             1.7463    -2.4665     0.6224 C.ar    
   8 N8             0.7457    -3.2727     0.9545 N.ar    
   9 C9             0.9026    -4.5850     0.9404 C.ar    
  10 C10            2.1302    -5.1160     0.5731 C.ar    
  11 C11            3.1547    -4.2454     0.2318 C.ar    
  12 N12            2.9311    -2.9431     0.2612 N.ar    
  13 N13            3.7874    -0.5800    -0.0604 N.ar    
  14 N14            4.7480     0.2097    -0.3788 N.ar    
  15 C15            4.6309     1.5387    -0.3772 C.ar    
  16 C16            3.4144     2.1366    -0.0160 C.ar    
  17 N17            3.2630     3.5057    -0.0047 N.pl3   
  18 C18            5.7807     2.3793    -0.7551 C.2     
  19 N19            6.9803     1.8129    -0.9928 N.am    
  20 O20            5.6471     3.5842    -0.8524 O.2     
  21 C21            8.1234     2.6486    -1.3685 C.3     
  22 C22            9.4228     1.9383    -0.9838 C.3     
  23 C23            9.5006     1.8067     0.5386 C.3     
  24 C24           10.8000     1.0964     0.9233 C.3     
  25 C25            8.1030     2.8915    -2.8790 C.3     
  26 F26           -0.7067    -1.3131     1.3534 F       
  27 H27           -0.8732     1.2841     1.3336 H       
  28 H28            0.9162     2.8295     0.7425 H       
  29 H29            0.0848    -5.2360     1.2120 H       
  30 H30            2.2851    -6.1847     0.5535 H       
  31 H31            4.1223    -4.6273    -0.0586 H       
  32 H32            4.0430     4.0795     0.0533 H       
  33 H33            2.3765     3.8960    -0.0547 H       
  34 H34            7.0869     0.8519    -0.9152 H       
  35 H35            8.0628     3.6033    -0.8461 H       
  36 H36            9.4423     0.9466    -1.4357 H       
  37 H37           10.2735     2.5178    -1.3423 H       
  38 H38            9.4811     2.7984     0.9905 H       
  39 H39            8.6499     1.2272     0.8971 H       
  40 H40           10.8554     1.0027     2.0079 H       
  41 H41           10.8195     0.1047     0.4714 H       
  42 H42           11.6507     1.6759     0.5648 H       
  43 H43            8.1636     1.9368    -3.4014 H       
  44 H44            7.1773     3.3976    -3.1531 H       
  45 H45            8.9535     3.5133    -3.1585 H       
@<TRIPOS>BOND
   1    1    2 ar
   2    1    6 ar
   3    1   27 1
   4    2    3 ar
   5    2   26 1
   6    3    4 ar
   7    3    7 1
   8    4    5 ar
   9    4   13 ar
  10    5    6 ar
  11    5   16 ar
  12    6   28 1
  13    7    8 ar
  14    7   12 ar
  15    8    9 ar
  16    9   10 ar
  17    9   29 1
  18   10   11 ar
  19   10   30 1
  20   11   12 ar
  21   11   31 1
  22   13   14 ar
  23   14   15 ar
  24   15   16 ar
  25   15   18 1
  26   16   17 1
  27   17   32 1
  28   17   33 1
  29   18   19 am
  30   18   20 2
  31   19   21 1
  32   19   34 1
  33   21   22 1
  34   21   25 1
  35   21   35 1
  36   22   23 1
  37   22   36 1
  38   22   37 1
  39   23   24 1
  40   23   38 1
  41   23   39 1
  42   24   40 1
  43   24   41 1
  44   24   42 1
  45   25   43 1
  46   25   44 1
  47   25   45 1

#	End of record

