#	Name: ASD04882583
#	Creating user name:	WinNT
#	Creation time:	15. 06. 2019 20:55

#	Modifying user name:	WinNT
#	Modification time:	15. 06. 2019 20:55

#	Program:	/corina/corina34_cracker 3.40 0067  02.08.2006

@<TRIPOS>MOLECULE
ASD04882583
  78   83    0    0    0
SMALL
NO_CHARGES


@<TRIPOS>ATOM
   1 C1            -0.0215     1.4013    -0.0093 C.ar    
   2 C2            -0.0116     0.0036    -0.0051 C.ar    
   3 C3            -1.2094    -0.7019    -0.0164 C.ar    
   4 C4            -2.4097    -0.0268    -0.0317 C.ar    
   5 C5            -2.4268     1.3708    -0.0363 C.ar    
   6 C6            -1.2240     2.0826    -0.0188 C.ar    
   7 N7             1.1997    -0.6831     0.0098 N.3     
   8 C8             1.3068    -1.5361     1.2016 C.3     
   9 C9             1.3723    -1.4733    -1.2172 C.3     
  10 C10            2.7462    -2.1475    -1.1975 C.3     
  11 N11            2.8533    -3.0006    -0.0057 N.3     
  12 C12            2.6807    -2.2104     1.2213 C.3     
  13 C13           -3.7127     2.0937    -0.0531 C.2     
  14 O14           -3.7266     3.3096    -0.0572 O.2     
  15 N15           -4.8720     1.4065    -0.0640 N.am    
  16 N16            1.1864     2.1110     0.0021 N.am    
  17 C17            4.0683    -3.6894     0.0093 C.ar    
  18 C18            4.0810    -5.0782     0.0134 C.ar    
  19 C19            5.2843    -5.7562     0.0278 C.ar    
  20 C20            6.4753    -5.0539     0.0385 C.ar    
  21 C21            6.4662    -3.6709     0.0345 C.ar    
  22 C22            5.2669    -2.9868     0.0143 C.ar    
  23 C23            1.2294     3.3599     0.5068 C.2     
  24 C24            2.5098     4.0698     0.5995 C.2     
  25 C25            3.7311     3.5988     0.2174 C.2     
  26 N26            4.6277     4.5576     0.4707 N.2     
  27 C27            4.0138     5.5881     0.9875 C.2     
  28 O28            2.7069     5.3214     1.0755 O.3     
  29 O29            0.2060     3.8988     0.8855 O.2     
  30 C30            4.6731     6.8751     1.4119 C.3     
  31 C31            5.7520     6.7929     2.4936 C.3     
  32 C32            6.1445     7.0708     1.0411 C.3     
  33 C33            2.7835    -5.8445     0.0027 C.3     
  34 C34           -6.1490     2.1244    -0.0807 C.3     
  35 C35           -6.5481     2.4885     1.3507 C.3     
  36 C36           -7.8817     3.2382     1.3333 C.3     
  37 C37           -8.9600     2.3466     0.7143 C.3     
  38 C38           -8.5609     1.9825    -0.7171 C.3     
  39 C39           -7.2273     1.2327    -0.6997 C.3     
  40 O40           -6.8545     0.8927    -2.0366 O.3     
  41 O41           -9.5680     1.1497    -1.2952 O.3     
  42 H42           -1.1986    -1.7818    -0.0136 H       
  43 H43           -3.3385    -0.5777    -0.0404 H       
  44 H44           -1.2341     3.1625    -0.0223 H       
  45 H45            1.1882    -0.9263     2.0972 H       
  46 H46            0.5281    -2.2983     1.1745 H       
  47 H47            0.5943    -2.2347    -1.2718 H       
  48 H48            1.3015    -0.8175    -2.0850 H       
  49 H49            2.8648    -2.7574    -2.0931 H       
  50 H50            3.5250    -1.3854    -1.1704 H       
  51 H51            3.4587    -1.4489     1.2759 H       
  52 H52            2.7516    -2.8661     2.0891 H       
  53 H53           -4.8609     0.4366    -0.0608 H       
  54 H54            1.9917     1.7034    -0.3533 H       
  55 H55            5.2950    -6.8362     0.0310 H       
  56 H56            7.4147    -5.5865     0.0504 H       
  57 H57            7.3982    -3.1253     0.0432 H       
  58 H58            5.2605    -1.9068     0.0108 H       
  59 H59            3.9364     2.6290    -0.2113 H       
  60 H60            4.0311     7.7560     1.4073 H       
  61 H61            5.8201     7.6199     3.2003 H       
  62 H62            5.9850     5.8080     2.8982 H       
  63 H63            6.6357     6.2687     0.4902 H       
  64 H64            6.4708     8.0807     0.7923 H       
  65 H65            2.4808    -6.0322    -1.0274 H       
  66 H66            2.9180    -6.7941     0.5207 H       
  67 H67            2.0130    -5.2615     0.5073 H       
  68 H68           -6.0465     3.0344    -0.6719 H       
  69 H69           -6.6506     1.5785     1.9420 H       
  70 H70           -5.7799     3.1237     1.7917 H       
  71 H71           -8.1660     3.4976     2.3531 H       
  72 H72           -7.7792     4.1482     0.7421 H       
  73 H73           -9.0624     1.4366     1.3055 H       
  74 H74           -9.9101     2.8807     0.7019 H       
  75 H75           -8.4584     2.8924    -1.3084 H       
  76 H76           -7.3297     0.3228    -0.1085 H       
  77 H77           -7.4937     0.3274    -2.4915 H       
  78 H78          -10.4417     1.5616    -1.3387 H       
@<TRIPOS>BOND
   1    1    2 ar
   2    1   16 1
   3    1    6 ar
   4    2    3 ar
   5    2    7 1
   6    3    4 ar
   7    3   42 1
   8    4    5 ar
   9    4   43 1
  10    5    6 ar
  11    5   13 1
  12    6   44 1
  13    7    8 1
  14    7    9 1
  15    8   12 1
  16    8   45 1
  17    8   46 1
  18    9   10 1
  19    9   47 1
  20    9   48 1
  21   10   11 1
  22   10   49 1
  23   10   50 1
  24   11   12 1
  25   11   17 1
  26   12   51 1
  27   12   52 1
  28   13   14 2
  29   13   15 am
  30   15   34 1
  31   15   53 1
  32   16   23 am
  33   16   54 1
  34   17   18 ar
  35   17   22 ar
  36   18   19 ar
  37   18   33 1
  38   19   20 ar
  39   19   55 1
  40   20   21 ar
  41   20   56 1
  42   21   22 ar
  43   21   57 1
  44   22   58 1
  45   23   24 1
  46   23   29 2
  47   24   25 2
  48   24   28 1
  49   25   26 1
  50   25   59 1
  51   26   27 2
  52   27   28 1
  53   27   30 1
  54   30   31 1
  55   30   32 1
  56   30   60 1
  57   31   32 1
  58   31   61 1
  59   31   62 1
  60   32   63 1
  61   32   64 1
  62   33   65 1
  63   33   66 1
  64   33   67 1
  65   34   35 1
  66   34   39 1
  67   34   68 1
  68   35   36 1
  69   35   69 1
  70   35   70 1
  71   36   37 1
  72   36   71 1
  73   36   72 1
  74   37   38 1
  75   37   73 1
  76   37   74 1
  77   38   39 1
  78   38   41 1
  79   38   75 1
  80   39   40 1
  81   39   76 1
  82   40   77 1
  83   41   78 1

#	End of record

