#	Name: ASD03430482
#	Creating user name:	WinNT
#	Creation time:	15. 06. 2019 20:41

#	Modifying user name:	WinNT
#	Modification time:	15. 06. 2019 20:41

#	Program:	/corina/corina34_cracker 3.40 0067  02.08.2006

@<TRIPOS>MOLECULE
ASD03430482
  18   19    0    0    0
SMALL
NO_CHARGES


@<TRIPOS>ATOM
   1 O1            -0.0162     1.3402     0.0094 O.3     
   2 C2             0.0021    -0.0041     0.0020 C.2     
   3 C3             1.2662    -0.4485    -0.0124 C.2     
   4 C4             2.1199     0.7455    -0.0142 C.ar    
   5 C5             1.2371     1.8378     0.0001 C.ar    
   6 C6             3.4977     0.9587    -0.0255 C.ar    
   7 C7             3.9871     2.2357    -0.0227 C.ar    
   8 C8             3.1220     3.3197    -0.0086 C.ar    
   9 C9             1.7544     3.1290     0.0017 C.ar    
  10 F10            0.9218     4.1928     0.0154 F       
  11 C11           -1.2216    -0.8836     0.0094 C.3     
  12 Br12          -1.7359    -1.2753     1.8661 Br      
  13 H13            1.5915    -1.4783    -0.0208 H       
  14 H14            4.1760     0.1184    -0.0362 H       
  15 H15            5.0543     2.4012    -0.0311 H       
  16 H16            3.5219     4.3229    -0.0065 H       
  17 H17           -2.0410    -0.3704    -0.4939 H       
  18 H18           -1.0023    -1.8157    -0.5112 H       
@<TRIPOS>BOND
   1    1    2 1
   2    1    5 1
   3    2    3 2
   4    2   11 1
   5    3    4 1
   6    3   13 1
   7    4    5 ar
   8    4    6 ar
   9    5    9 ar
  10    6    7 ar
  11    6   14 1
  12    7    8 ar
  13    7   15 1
  14    8    9 ar
  15    8   16 1
  16    9   10 1
  17   11   12 1
  18   11   17 1
  19   11   18 1

#	End of record

