#	Name: ASD01884214
#	Creating user name:	WinNT
#	Creation time:	15. 06. 2019 19:47

#	Modifying user name:	WinNT
#	Modification time:	15. 06. 2019 19:47

#	Program:	/corina/corina34_cracker 3.40 0067  02.08.2006

@<TRIPOS>MOLECULE
ASD01884214
  36   39    0    0    0
SMALL
NO_CHARGES


@<TRIPOS>ATOM
   1 C1            -0.0168     1.3907     0.0097 C.ar    
   2 C2             0.0021    -0.0041     0.0020 C.ar    
   3 C3            -1.1687    -0.7210     0.0098 C.ar    
   4 C4            -2.4131    -0.0704     0.0257 C.ar    
   5 C5            -2.4159     1.3263     0.0332 C.ar    
   6 C6            -1.2418     2.0534     0.0308 C.ar    
   7 C7             1.2525     2.1591     0.0017 C.ar    
   8 N8            -3.6710    -0.6449     0.0359 N.am    
   9 C9            -4.7414     0.1550     0.0515 C.2     
  10 S10           -4.1168     1.8127     0.0538 S.3     
  11 O11           -5.9096    -0.1865     0.0619 O.2     
  12 C12           -3.8270    -2.1015     0.0292 C.3     
  13 C13           -3.8659    -2.6169     1.4693 C.3     
  14 C14           -4.1421    -4.1070     1.6792 C.3     
  15 C15           -2.7377    -3.5483     1.9170 C.3     
  16 C16            1.2250     3.5531     0.0094 C.ar    
  17 C17            2.4052     4.2712     0.0021 C.ar    
  18 C18            3.6192     3.6148    -0.0130 C.ar    
  19 C19            3.6604     2.2183    -0.0205 C.ar    
  20 C20            2.4719     1.4896    -0.0077 C.ar    
  21 C21            4.9200     1.5373    -0.0366 C.1     
  22 N22            5.9193     0.9971    -0.0494 N.1     
  23 H23            0.9478    -0.5255    -0.0105 H       
  24 H24           -1.1321    -1.8004     0.0033 H       
  25 H25           -1.2734     3.1329     0.0368 H       
  26 H26           -4.7561    -2.3651    -0.4762 H       
  27 H27           -2.9864    -2.5546    -0.4962 H       
  28 H28           -4.2677    -1.9218     2.2066 H       
  29 H29           -4.7252    -4.3924     2.5548 H       
  30 H30           -4.2961    -4.7203     0.7913 H       
  31 H31           -1.9678    -3.7940     1.1856 H       
  32 H32           -2.3969    -3.4662     2.9491 H       
  33 H33            0.2784     4.0729     0.0209 H       
  34 H34            2.3778     5.3509     0.0078 H       
  35 H35            4.5385     4.1815    -0.0195 H       
  36 H36            2.4977     0.4099    -0.0134 H       
@<TRIPOS>BOND
   1    1    2 ar
   2    1    7 1
   3    1    6 ar
   4    2    3 ar
   5    2   23 1
   6    3    4 ar
   7    3   24 1
   8    4    5 ar
   9    4    8 1
  10    5    6 ar
  11    5   10 1
  12    6   25 1
  13    7   16 ar
  14    7   20 ar
  15    8    9 am
  16    8   12 1
  17    9   10 1
  18    9   11 2
  19   12   13 1
  20   12   26 1
  21   12   27 1
  22   13   14 1
  23   13   15 1
  24   13   28 1
  25   14   15 1
  26   14   29 1
  27   14   30 1
  28   15   31 1
  29   15   32 1
  30   16   17 ar
  31   16   33 1
  32   17   18 ar
  33   17   34 1
  34   18   19 ar
  35   18   35 1
  36   19   20 ar
  37   19   21 1
  38   20   36 1
  39   21   22 3

#	End of record

