#	Name: ASD01881733
#	Creating user name:	WinNT
#	Creation time:	15. 06. 2019 19:43

#	Modifying user name:	WinNT
#	Modification time:	15. 06. 2019 19:43

#	Program:	/corina/corina34_cracker 3.40 0067  02.08.2006

@<TRIPOS>MOLECULE
ASD01881733
  40   42    0    0    0
SMALL
NO_CHARGES


@<TRIPOS>ATOM
   1 C1            -0.0184     1.5028     0.0103 C.2     
   2 C2             0.0021    -0.0041     0.0020 C.3     
   3 O3             1.0197     2.1211     0.0037 O.2     
   4 O4            -1.1898     2.1580     0.0194 O.3     
   5 C5            -1.1335     3.6089     0.0270 C.3     
   6 C6            -2.5551     4.1744     0.0369 C.3     
   7 C7            -2.4958     5.7033     0.0449 C.3     
   8 O8            -3.8235     6.2315     0.0541 O.3     
   9 N9            -4.6051    11.6529     0.0877 N.pl3   
  10 N10           -6.0070    11.6069     0.0935 N.2     
  11 N11           -6.3951    10.3805     0.0881 N.2     
  12 C12           -5.3315     9.5525     0.0788 C.ar    
  13 C13           -4.1717    10.3467     0.0784 C.ar    
  14 C14           -5.2051     8.1565     0.0711 C.ar    
  15 C15           -3.9493     7.5855     0.0620 C.ar    
  16 C16           -2.8093     8.3857     0.0614 C.ar    
  17 C17           -2.9170     9.7478     0.0703 C.ar    
  18 C18           -3.7672    12.8547     0.0856 C.3     
  19 C19           -3.4691    13.2711     1.5274 C.3     
  20 C20           -2.5075    14.4420     1.7400 C.3     
  21 C21           -4.0046    14.6253     1.9967 C.3     
  22 Br22          -6.7472     7.0622     0.0720 Br      
  23 H23            1.0345    -0.3534    -0.0097 H       
  24 H24           -0.4983    -0.3791     0.8948 H       
  25 H25           -0.5153    -0.3696    -0.8850 H       
  26 H26           -0.6017     3.9472     0.9164 H       
  27 H27           -0.6102     3.9569    -0.8636 H       
  28 H28           -3.0869     3.8361    -0.8525 H       
  29 H29           -3.0784     3.8265     0.9275 H       
  30 H30           -1.9640     6.0416     0.9342 H       
  31 H31           -1.9725     6.0513    -0.8457 H       
  32 H32           -1.8322     7.9257     0.0546 H       
  33 H33           -2.0270    10.3596     0.0700 H       
  34 H34           -2.8317    12.6445    -0.4327 H       
  35 H35           -4.2918    13.6624    -0.4248 H       
  36 H36           -3.4433    12.4601     2.2552 H       
  37 H37           -1.8493    14.4015     2.6080 H       
  38 H38           -2.0872    14.9156     0.8528 H       
  39 H39           -4.5693    15.2196     1.2783 H       
  40 H40           -4.3314    14.7054     3.0334 H       
@<TRIPOS>BOND
   1    1    2 1
   2    1    3 2
   3    1    4 1
   4    2   23 1
   5    2   24 1
   6    2   25 1
   7    4    5 1
   8    5    6 1
   9    5   26 1
  10    5   27 1
  11    6    7 1
  12    6   28 1
  13    6   29 1
  14    7    8 1
  15    7   30 1
  16    7   31 1
  17    8   15 1
  18    9   10 1
  19    9   13 1
  20    9   18 1
  21   10   11 2
  22   11   12 1
  23   12   13 ar
  24   12   14 ar
  25   13   17 ar
  26   14   15 ar
  27   14   22 1
  28   15   16 ar
  29   16   17 ar
  30   16   32 1
  31   17   33 1
  32   18   19 1
  33   18   34 1
  34   18   35 1
  35   19   20 1
  36   19   21 1
  37   19   36 1
  38   20   21 1
  39   20   37 1
  40   20   38 1
  41   21   39 1
  42   21   40 1

#	End of record

