#	Name: ASD05430040
#	Creating user name:	WinNT
#	Creation time:	15. 06. 2019 20:59

#	Modifying user name:	WinNT
#	Modification time:	15. 06. 2019 20:59

#	Program:	/corina/corina34_cracker 3.40 0067  02.08.2006

@<TRIPOS>MOLECULE
ASD05430040
  64   69    0    0    0
SMALL
NO_CHARGES


@<TRIPOS>ATOM
   1 C1             0.0526     1.1913     0.3799 C.ar    
   2 C2             0.0200    -0.0135    -0.3217 C.ar    
   3 C3             1.1732    -0.5030    -0.9215 C.ar    
   4 C4             2.3549     0.1991    -0.8258 C.ar    
   5 C5             2.3950     1.4081    -0.1237 C.ar    
   6 C6             1.2342     1.9011     0.4797 C.ar    
   7 C7             4.8634    -0.0034     0.2175 C.3     
   8 C8             4.8270     1.5012     0.0670 C.2     
   9 C9             3.6566     2.1597    -0.0203 C.2     
  10 C10            6.2030    -0.4255     0.8275 C.3     
  11 C11            6.8973     0.6199     1.7080 C.3     
  12 N12            7.0966     1.8373     0.9213 N.pl3   
  13 C13            6.1093     2.2255     0.0192 C.2     
  14 N14           -1.1789    -0.7322    -0.4214 N.pl3   
  15 C15           -2.0070    -1.0672     0.6019 C.2     
  16 C16           -1.7406    -1.2248    -1.5709 C.2     
  17 C17           -2.8813    -1.8446    -1.2131 C.2     
  18 N18           -3.0192    -1.7332     0.1164 N.2     
  19 C19           -3.8397    -2.5392    -2.1459 C.3     
  20 C20           -0.9731     2.9100     1.6638 C.3     
  21 O21           -1.0793     1.6703     0.9610 O.3     
  22 C22            8.2927     2.6674     1.0667 C.3     
  23 C23            8.6800     3.2037    -0.3157 C.3     
  24 O24            7.5612     3.8463    -0.9182 O.3     
  25 N25            6.3260     3.1748    -0.8331 N.2     
  26 C26            8.0017     3.8188     1.9944 C.ar    
  27 C27            8.9907     4.7408     2.2822 C.ar    
  28 C28            8.7250     5.7974     3.1325 C.ar    
  29 C29            7.4675     5.9322     3.6962 C.ar    
  30 C30            6.4777     5.0082     3.4072 C.ar    
  31 C31            6.7443     3.9554     2.5525 C.ar    
  32 F32            7.2067     6.9644     4.5279 F       
  33 C33            6.3627    -1.8945     1.2257 C.3     
  34 C34            7.0950    -1.3504    -0.0028 C.3     
  35 C35            9.4383     1.8258     1.6324 C.3     
  36 H36            1.1437    -1.4364    -1.4639 H       
  37 H37            3.2502    -0.1843    -1.2925 H       
  38 H38            1.2608     2.8345     1.0224 H       
  39 H39            4.0507    -0.3227     0.8700 H       
  40 H40            4.7472    -0.4691    -0.7611 H       
  41 H41            3.6429     3.2396    -0.0145 H       
  42 H42            6.2730     0.8419     2.5735 H       
  43 H43            7.8625     0.2364     2.0390 H       
  44 H44           -1.8535    -0.8236     1.6428 H       
  45 H45           -1.3445    -1.1329    -2.5714 H       
  46 H46           -3.5540    -3.5862    -2.2468 H       
  47 H47           -4.8502    -2.4756    -1.7420 H       
  48 H48           -3.8082    -2.0581    -3.1234 H       
  49 H49           -1.9453     3.1773     2.0779 H       
  50 H50           -0.2492     2.8084     2.4724 H       
  51 H51           -0.6438     3.6898     0.9772 H       
  52 H52            9.4953     3.9195    -0.2109 H       
  53 H53            9.0053     2.3766    -0.9467 H       
  54 H54            9.9716     4.6352     1.8427 H       
  55 H55            9.4979     6.5173     3.3575 H       
  56 H56            5.4965     5.1123     3.8463 H       
  57 H57            5.9724     3.2345     2.3269 H       
  58 H58            6.9593    -2.1139     2.1111 H       
  59 H59            5.5150    -2.5576     1.0535 H       
  60 H60            6.7291    -1.6558    -0.9830 H       
  61 H61            8.1734    -1.2121     0.0745 H       
  62 H62            9.6518     0.9999     0.9539 H       
  63 H63           10.3274     2.4473     1.7392 H       
  64 H64            9.1520     1.4307     2.6071 H       
@<TRIPOS>BOND
   1    1    2 ar
   2    1    6 ar
   3    1   21 1
   4    2    3 ar
   5    2   14 1
   6    3    4 ar
   7    3   36 1
   8    4    5 ar
   9    4   37 1
  10    5    6 ar
  11    5    9 1
  12    6   38 1
  13    7    8 1
  14    7   10 1
  15    7   39 1
  16    7   40 1
  17    8    9 2
  18    8   13 1
  19    9   41 1
  20   10   11 1
  21   10   33 1
  22   10   34 1
  23   11   12 1
  24   11   42 1
  25   11   43 1
  26   12   13 1
  27   12   22 1
  28   13   25 2
  29   14   15 1
  30   14   16 1
  31   15   18 2
  32   15   44 1
  33   16   17 2
  34   16   45 1
  35   17   18 1
  36   17   19 1
  37   19   46 1
  38   19   47 1
  39   19   48 1
  40   20   21 1
  41   20   49 1
  42   20   50 1
  43   20   51 1
  44   22   23 1
  45   22   26 1
  46   22   35 1
  47   23   24 1
  48   23   52 1
  49   23   53 1
  50   24   25 1
  51   26   27 ar
  52   26   31 ar
  53   27   28 ar
  54   27   54 1
  55   28   29 ar
  56   28   55 1
  57   29   30 ar
  58   29   32 1
  59   30   31 ar
  60   30   56 1
  61   31   57 1
  62   33   34 1
  63   33   58 1
  64   33   59 1
  65   34   60 1
  66   34   61 1
  67   35   62 1
  68   35   63 1
  69   35   64 1

#	End of record

