#	Name: ASD00070005
#	Creating user name:	WinNT
#	Creation time:	15. 06. 2019 18:29

#	Modifying user name:	WinNT
#	Modification time:	15. 06. 2019 18:29

#	Program:	/corina/corina34_cracker 3.40 0067  02.08.2006

@<TRIPOS>MOLECULE
ASD00070005
  66   70    0    0    0
SMALL
NO_CHARGES


@<TRIPOS>ATOM
   1 C1             5.5661     6.2628     1.2662 C.ar    
   2 C2             5.0757     5.8929     2.4994 C.ar    
   3 C3             4.8028     4.5634     2.7398 C.ar    
   4 C4             5.0315     3.6048     1.7590 C.ar    
   5 C5             5.5244     3.9729     0.5198 C.ar    
   6 C6             5.7763     5.3123     0.2768 C.ar    
   7 C7             5.7407     2.9332    -0.5463 C.3     
   8 C8             6.5031     3.4799    -1.7493 C.3     
   9 C9             5.9016     4.8274    -2.1581 C.3     
  10 C10            6.2512     5.8289    -1.0573 C.3     
  11 C11            4.7286     2.1787     2.1415 C.3     
  12 C12            4.3233     1.3379     0.9322 C.3     
  13 N13            5.5441     0.7143     0.4114 N.3     
  14 C14            6.5185     1.7242    -0.0047 C.3     
  15 C15            6.1274    -0.2052     1.3975 C.3     
  16 C16            7.1373    -1.1222     0.7048 C.3     
  17 C17            7.7449    -2.0798     1.7318 C.3     
  18 C18            8.7548    -2.9969     1.0390 C.3     
  19 N19            9.3365    -3.9138     2.0224 N.am    
  20 C20            8.7347    -5.0935     2.2342 C.2     
  21 C21            9.2911    -6.0901     3.2177 C.3     
  22 C22           10.0506    -5.3444     4.3138 C.3     
  23 C23           11.1076    -4.4402     3.6815 C.3     
  24 C24           10.4509    -3.5396     2.6680 C.2     
  25 C25            9.0774    -4.5098     5.1577 C.3     
  26 C26            9.1868    -5.0400     6.6033 C.3     
  27 C27           10.5895    -5.6949     6.6630 C.3     
  28 C28           10.7219    -6.3506     5.2650 C.3     
  29 O29           10.9346    -2.4522     2.4373 O.2     
  30 O30            7.7232    -5.3629     1.6228 O.2     
  31 Cl31           4.1682     4.0811     4.2820 Cl      
  32 H32            5.7846     7.3014     1.0662 H       
  33 H33            4.9078     6.6340     3.2669 H       
  34 H34            4.7672     2.5807    -0.8870 H       
  35 H35            7.5519     3.6147    -1.4849 H       
  36 H36            6.4235     2.7787    -2.5800 H       
  37 H37            6.3298     5.1530    -3.1061 H       
  38 H38            4.8191     4.7386    -2.2494 H       
  39 H39            5.7679     6.7827    -1.2690 H       
  40 H40            7.3315     5.9709    -1.0269 H       
  41 H41            5.6145     1.7383     2.5989 H       
  42 H42            3.9154     2.1711     2.8674 H       
  43 H43            3.6135     0.5684     1.2358 H       
  44 H44            3.8774     1.9757     0.1690 H       
  45 H45            7.1601     1.3179    -0.7866 H       
  46 H46            7.1236     2.0274     0.8497 H       
  47 H47            6.6313     0.3683     2.1755 H       
  48 H48            5.3367    -0.8076     1.8447 H       
  49 H49            6.6334    -1.6957    -0.0732 H       
  50 H50            7.9280    -0.5198     0.2575 H       
  51 H51            8.2488    -1.5063     2.5097 H       
  52 H52            6.9542    -2.6823     2.1790 H       
  53 H53            8.2509    -3.5704     0.2611 H       
  54 H54            9.5455    -2.3944     0.5918 H       
  55 H55            8.4738    -6.6577     3.6626 H       
  56 H56            9.9696    -6.7701     2.7025 H       
  57 H57           11.5806    -3.8363     4.4559 H       
  58 H58           11.8607    -5.0524     3.1852 H       
  59 H59            9.3600    -3.4576     5.1230 H       
  60 H60            8.0595    -4.6363     4.7890 H       
  61 H61            9.1184    -4.2190     7.3170 H       
  62 H62            8.4113    -5.7810     6.7975 H       
  63 H63           11.3620    -4.9402     6.8102 H       
  64 H64           10.6304    -6.4493     7.4487 H       
  65 H65           10.1988    -7.3066     5.2405 H       
  66 H66           11.7717    -6.4820     5.0028 H       
@<TRIPOS>BOND
   1    1    2 ar
   2    1    6 ar
   3    1   32 1
   4    2    3 ar
   5    2   33 1
   6    3    4 ar
   7    3   31 1
   8    4    5 ar
   9    4   11 1
  10    5    6 ar
  11    5    7 1
  12    6   10 1
  13    7    8 1
  14    7   14 1
  15    7   34 1
  16    8    9 1
  17    8   35 1
  18    8   36 1
  19    9   10 1
  20    9   37 1
  21    9   38 1
  22   10   39 1
  23   10   40 1
  24   11   12 1
  25   11   41 1
  26   11   42 1
  27   12   13 1
  28   12   43 1
  29   12   44 1
  30   13   14 1
  31   13   15 1
  32   14   45 1
  33   14   46 1
  34   15   16 1
  35   15   47 1
  36   15   48 1
  37   16   17 1
  38   16   49 1
  39   16   50 1
  40   17   18 1
  41   17   51 1
  42   17   52 1
  43   18   19 1
  44   18   53 1
  45   18   54 1
  46   19   20 am
  47   19   24 am
  48   20   21 1
  49   20   30 2
  50   21   22 1
  51   21   55 1
  52   21   56 1
  53   22   23 1
  54   22   25 1
  55   22   28 1
  56   23   24 1
  57   23   57 1
  58   23   58 1
  59   24   29 2
  60   25   26 1
  61   25   59 1
  62   25   60 1
  63   26   27 1
  64   26   61 1
  65   26   62 1
  66   27   28 1
  67   27   63 1
  68   27   64 1
  69   28   65 1
  70   28   66 1

#	End of record

