#	Name: ASD01810183
#	Creating user name:	WinNT
#	Creation time:	15. 06. 2019 19:24

#	Modifying user name:	WinNT
#	Modification time:	15. 06. 2019 19:24

#	Program:	/corina/corina34_cracker 3.40 0067  02.08.2006

@<TRIPOS>MOLECULE
ASD01810183
  38   40    0    0    0
SMALL
NO_CHARGES


@<TRIPOS>ATOM
   1 C1            -0.0735     1.3174     0.1670 C.ar    
   2 C2            -0.0304    -0.0684     0.1555 C.ar    
   3 C3             1.1755    -0.7362     0.0897 C.ar    
   4 C4             2.3680    -0.0171     0.0334 C.ar    
   5 C5             2.3228     1.3875     0.0447 C.ar    
   6 C6             1.0949     2.0506     0.1120 C.ar    
   7 N7             3.5792    -0.6732    -0.0315 N.pl3   
   8 C8             4.7514    -0.0283    -0.0862 C.2     
   9 C9             4.8336     1.3495    -0.0811 C.2     
  10 C10            3.5908     2.1359    -0.0152 C.2     
  11 O11            3.6100     3.3544    -0.0086 O.2     
  12 C12            6.1398     2.0202    -0.1414 C.2     
  13 O13            6.2070     3.3666    -0.1358 O.3     
  14 O14            7.1597     1.3609    -0.1963 O.2     
  15 C15            3.5837    -2.1382    -0.0406 C.3     
  16 C16            3.7124    -2.6489     1.3714 C.ar    
  17 C17            2.5883    -2.7678     2.1675 C.ar    
  18 C18            2.7037    -3.2356     3.4622 C.ar    
  19 C19            3.9488    -3.5864     3.9634 C.ar    
  20 C20            5.0753    -3.4662     3.1625 C.ar    
  21 C21            4.9538    -3.0031     1.8666 C.ar    
  22 F22            1.2001    -2.0869     0.0803 F       
  23 F23            1.0511     3.4008     0.1224 F       
  24 O24            4.0650    -4.0465     5.2368 O.3     
  25 C25            5.3778    -4.3886     5.6858 C.3     
  26 F26            6.2029    -3.2609     5.6168 F       
  27 F27            5.3154    -4.8405     7.0083 F       
  28 F28            5.9004    -5.3993     4.8717 F       
  29 H29           -1.0254     1.8254     0.2147 H       
  30 H30           -0.9509    -0.6315     0.1988 H       
  31 H31            5.6629    -0.6055    -0.1356 H       
  32 H32            7.0884     3.7623    -0.1768 H       
  33 H33            2.6523    -2.5017    -0.4749 H       
  34 H34            4.4251    -2.4953    -0.6343 H       
  35 H35            1.6192    -2.4942     1.7770 H       
  36 H36            1.8253    -3.3280     4.0838 H       
  37 H37            6.0457    -3.7386     3.5504 H       
  38 H38            5.8304    -2.9094     1.2428 H       
@<TRIPOS>BOND
   1    1    2 ar
   2    1    6 ar
   3    1   29 1
   4    2    3 ar
   5    2   30 1
   6    3    4 ar
   7    3   22 1
   8    4    5 ar
   9    4    7 1
  10    5    6 ar
  11    5   10 1
  12    6   23 1
  13    7    8 1
  14    7   15 1
  15    8    9 2
  16    8   31 1
  17    9   10 1
  18    9   12 1
  19   10   11 2
  20   12   13 1
  21   12   14 2
  22   13   32 1
  23   15   16 1
  24   15   33 1
  25   15   34 1
  26   16   17 ar
  27   16   21 ar
  28   17   18 ar
  29   17   35 1
  30   18   19 ar
  31   18   36 1
  32   19   20 ar
  33   19   24 1
  34   20   21 ar
  35   20   37 1
  36   21   38 1
  37   24   25 1
  38   25   26 1
  39   25   27 1
  40   25   28 1

#	End of record

