#	Name: ASD00100109
#	Creating user name:	WinNT
#	Creation time:	15. 06. 2019 18:30

#	Modifying user name:	WinNT
#	Modification time:	15. 06. 2019 18:30

#	Program:	/corina/corina34_cracker 3.40 0067  02.08.2006

@<TRIPOS>MOLECULE
ASD00100109
  40   41    0    0    0
SMALL
NO_CHARGES


@<TRIPOS>ATOM
   1 N1            -0.1278     1.5390     0.3495 N.pl3   
   2 C2            -0.0195     0.1695     0.1739 C.2     
   3 N3             1.0998    -0.4995     0.0294 N.2     
   4 C4             0.8210    -1.8060    -0.1163 C.2     
   5 C5            -0.5126    -1.9619    -0.0617 C.2     
   6 N6            -1.0554    -0.7110     0.1279 N.pl3   
   7 C7            -2.4790    -0.3888     0.2535 C.3     
   8 C8            -3.0265     0.0019    -1.0951 C.ar    
   9 C9            -3.4535    -0.9767    -1.9812 C.ar    
  10 C10           -3.9569    -0.6139    -3.2217 C.ar    
  11 C11           -4.0319     0.7205    -3.5721 C.ar    
  12 C12           -3.6054     1.6936    -2.6877 C.ar    
  13 C13           -3.1088     1.3348    -1.4479 C.ar    
  14 O14           -3.3783    -2.2886    -1.6344 O.3     
  15 C15           -3.8359    -3.2412    -2.5963 C.3     
  16 C16            1.8310    -2.9077    -0.3090 C.3     
  17 C17            1.8196    -3.3603    -1.7705 C.3     
  18 C18            3.2246    -2.3911     0.0541 C.3     
  19 C19            1.4742    -4.0903     0.5939 C.3     
  20 H20            0.6717     2.0829     0.4259 H       
  21 H21           -1.0031     1.9548     0.3921 H       
  22 H22           -1.0551    -2.8919    -0.1466 H       
  23 H23           -3.0173    -1.2605     0.6255 H       
  24 H24           -2.6038     0.4400     0.9503 H       
  25 H25           -4.2896    -1.3738    -3.9133 H       
  26 H26           -4.4238     1.0036    -4.5379 H       
  27 H27           -3.6642     2.7361    -2.9637 H       
  28 H28           -2.7807     2.0971    -0.7568 H       
  29 H29           -3.2491    -3.1456    -3.5099 H       
  30 H30           -3.7208    -4.2477    -2.1941 H       
  31 H31           -4.8870    -3.0568    -2.8186 H       
  32 H32            2.0738    -2.5178    -2.4137 H       
  33 H33            2.5501    -4.1571    -1.9098 H       
  34 H34            0.8267    -3.7283    -2.0291 H       
  35 H35            3.2328    -2.0687     1.0953 H       
  36 H36            3.9552    -3.1880    -0.0852 H       
  37 H37            3.4788    -1.5487    -0.5891 H       
  38 H38            0.4814    -4.4583     0.3353 H       
  39 H39            2.2048    -4.8871     0.4546 H       
  40 H40            1.4824    -3.7679     1.6351 H       
@<TRIPOS>BOND
   1    1    2 1
   2    1   20 1
   3    1   21 1
   4    2    3 2
   5    2    6 1
   6    3    4 1
   7    4    5 2
   8    4   16 1
   9    5    6 1
  10    5   22 1
  11    6    7 1
  12    7    8 1
  13    7   23 1
  14    7   24 1
  15    8    9 ar
  16    8   13 ar
  17    9   10 ar
  18    9   14 1
  19   10   11 ar
  20   10   25 1
  21   11   12 ar
  22   11   26 1
  23   12   13 ar
  24   12   27 1
  25   13   28 1
  26   14   15 1
  27   15   29 1
  28   15   30 1
  29   15   31 1
  30   16   17 1
  31   16   19 1
  32   16   18 1
  33   17   32 1
  34   17   33 1
  35   17   34 1
  36   18   35 1
  37   18   36 1
  38   18   37 1
  39   19   38 1
  40   19   39 1
  41   19   40 1

#	End of record

