#	Name: ASD00960233
#	Creating user name:	WinNT
#	Creation time:	15. 06. 2019 18:53

#	Modifying user name:	WinNT
#	Modification time:	15. 06. 2019 18:53

#	Program:	/corina/corina34_cracker 3.40 0067  02.08.2006

@<TRIPOS>MOLECULE
ASD00960233
  35   37    0    0    0
SMALL
NO_CHARGES


@<TRIPOS>ATOM
   1 C1            -0.1119     1.5995    -0.3139 C.2     
   2 N2             1.9957     0.9107    -0.6224 N.pl3   
   3 C3             1.1909    -0.1713    -0.8250 C.2     
   4 C4            -0.1431     0.2351    -0.6368 C.2     
   5 N5             3.3823     0.7470    -0.7568 N.2     
   6 C6             3.8766    -0.4234    -1.0699 C.2     
   7 N7             3.1029    -1.4836    -1.2695 N.2     
   8 C8             1.7875    -1.4074    -1.1604 C.2     
   9 N9             1.0040    -2.5255    -1.3727 N.pl3   
  10 C10           -1.3386    -0.6079    -0.7551 C.2     
  11 C11            1.2138     1.9930    -0.3109 C.2     
  12 O12           -1.4010    -1.4559    -1.6244 O.2     
  13 O13           -2.3678    -0.4422     0.1003 O.3     
  14 C14            1.7018     3.3426    -0.0232 C.2     
  15 O15            0.9139     4.2305     0.2423 O.2     
  16 O16            3.0254     3.6018    -0.0526 O.3     
  17 C17            3.4309     4.9409     0.2383 C.3     
  18 C18            4.9325     5.0396     0.1585 C.ar    
  19 C19            5.5413     5.3615    -1.0402 C.ar    
  20 C20            6.9187     5.4520    -1.1134 C.ar    
  21 C21            7.6874     5.2211     0.0121 C.ar    
  22 C22            7.0786     4.9001     1.2109 C.ar    
  23 C23            5.7009     4.8138     1.2852 C.ar    
  24 H24           -0.9660     2.2281    -0.1097 H       
  25 H25            4.9467    -0.5302    -1.1693 H       
  26 H26            1.3565    -3.2764    -1.8755 H       
  27 H27            0.1014    -2.5595    -1.0190 H       
  28 H28           -3.1336    -1.0209    -0.0169 H       
  29 H29            2.9830     5.6215    -0.4858 H       
  30 H30            3.1019     5.2102     1.2419 H       
  31 H31            4.9408     5.5419    -1.9195 H       
  32 H32            7.3944     5.7028    -2.0500 H       
  33 H33            8.7636     5.2911    -0.0453 H       
  34 H34            7.6791     4.7193     2.0902 H       
  35 H35            5.2250     4.5667     2.2227 H       
@<TRIPOS>BOND
   1    1    4 1
   2    1   11 2
   3    1   24 1
   4    2    3 1
   5    2    5 1
   6    2   11 1
   7    3    4 2
   8    3    8 1
   9    4   10 1
  10    5    6 2
  11    6    7 1
  12    6   25 1
  13    7    8 2
  14    8    9 1
  15    9   26 1
  16    9   27 1
  17   10   12 2
  18   10   13 1
  19   11   14 1
  20   13   28 1
  21   14   15 2
  22   14   16 1
  23   16   17 1
  24   17   18 1
  25   17   29 1
  26   17   30 1
  27   18   19 ar
  28   18   23 ar
  29   19   20 ar
  30   19   31 1
  31   20   21 ar
  32   20   32 1
  33   21   22 ar
  34   21   33 1
  35   22   23 ar
  36   22   34 1
  37   23   35 1

#	End of record

