#	Name: ASD03331465
#	Creating user name:	WinNT
#	Creation time:	15. 06. 2019 20:39

#	Modifying user name:	WinNT
#	Modification time:	15. 06. 2019 20:39

#	Program:	/corina/corina34_cracker 3.40 0067  02.08.2006

@<TRIPOS>MOLECULE
ASD03331465
  42   43    0    0    0
SMALL
NO_CHARGES


@<TRIPOS>ATOM
   1 C1            -0.0184     1.5028     0.0103 C.2     
   2 C2             0.0021    -0.0041     0.0020 C.3     
   3 C3             1.4295    -0.4870    -0.0142 C.2     
   4 C4             2.1673    -0.6137    -1.3221 C.3     
   5 O5             1.0197     2.1211     0.0037 O.2     
   6 O6            -1.1898     2.1580     0.0194 O.3     
   7 O7             1.9822    -0.7724     1.0209 O.2     
   8 C8            -0.7002    -0.5305     1.2552 C.3     
   9 C9            -2.1581    -0.1513     1.2108 C.2     
  10 O10           -2.5925     0.4780     0.2696 O.2     
  11 C11           -3.0535    -0.5443     2.3084 C.ar    
  12 C12           -4.4090    -0.1937     2.2708 C.ar    
  13 C13           -5.2427    -0.5670     3.3049 C.ar    
  14 C14           -4.7416    -1.2857     4.3776 C.ar    
  15 C15           -3.4012    -1.6353     4.4212 C.ar    
  16 C16           -2.5572    -1.2754     3.3932 C.ar    
  17 Cl17          -5.7978    -1.7504     5.6745 Cl      
  18 Cl18          -5.0381     0.7080     0.9274 Cl      
  19 O19            3.4932    -1.0869    -1.0772 O.3     
  20 C20            4.2821    -1.2430    -2.2584 C.3     
  21 C21            5.6533    -1.7438    -1.8842 C.ar    
  22 C22            5.8990    -3.1026    -1.8193 C.ar    
  23 C23            7.1568    -3.5619    -1.4759 C.ar    
  24 C24            8.1690    -2.6625    -1.1979 C.ar    
  25 C25            7.9236    -1.3037    -1.2637 C.ar    
  26 C26            6.6669    -0.8443    -1.6113 C.ar    
  27 H27           -0.5153    -0.3696    -0.8850 H       
  28 H28            1.6435    -1.3185    -1.9679 H       
  29 H29            2.2133     0.3603    -1.8092 H       
  30 H30           -1.1523     3.1243     0.0245 H       
  31 H31           -0.6082    -1.6159     1.2944 H       
  32 H32           -0.2382    -0.0945     2.1409 H       
  33 H33           -6.2883    -0.2978     3.2781 H       
  34 H34           -3.0179    -2.1952     5.2615 H       
  35 H35           -1.5140    -1.5528     3.4271 H       
  36 H36            3.8022    -1.9608    -2.9236 H       
  37 H37            4.3720    -0.2820    -2.7649 H       
  38 H38            5.1082    -3.8053    -2.0365 H       
  39 H39            7.3485    -4.6235    -1.4245 H       
  40 H40            9.1515    -3.0214    -0.9290 H       
  41 H41            8.7143    -0.6010    -1.0462 H       
  42 H42            6.4762     0.2173    -1.6663 H       
@<TRIPOS>BOND
   1    1    2 1
   2    1    5 2
   3    1    6 1
   4    2    3 1
   5    2    8 1
   6    2   27 1
   7    3    4 1
   8    3    7 2
   9    4   19 1
  10    4   28 1
  11    4   29 1
  12    6   30 1
  13    8    9 1
  14    8   31 1
  15    8   32 1
  16    9   10 2
  17    9   11 1
  18   11   12 ar
  19   11   16 ar
  20   12   13 ar
  21   12   18 1
  22   13   14 ar
  23   13   33 1
  24   14   15 ar
  25   14   17 1
  26   15   16 ar
  27   15   34 1
  28   16   35 1
  29   19   20 1
  30   20   21 1
  31   20   36 1
  32   20   37 1
  33   21   22 ar
  34   21   26 ar
  35   22   23 ar
  36   22   38 1
  37   23   24 ar
  38   23   39 1
  39   24   25 ar
  40   24   40 1
  41   25   26 ar
  42   25   41 1
  43   26   42 1

#	End of record

