#	Name: ASD03570041
#	Creating user name:	WinNT
#	Creation time:	15. 06. 2019 20:43

#	Modifying user name:	WinNT
#	Modification time:	15. 06. 2019 20:43

#	Program:	/corina/corina34_cracker 3.40 0067  02.08.2006

@<TRIPOS>MOLECULE
ASD03570041
  77   81    0    0    0
SMALL
NO_CHARGES


@<TRIPOS>ATOM
   1 C1             8.8123     4.5816     1.1350 C.ar    
   2 C2             7.6014     5.0334     0.6448 C.ar    
   3 C3             6.6509     4.1288     0.2100 C.ar    
   4 C4             6.9115     2.7724     0.2649 C.ar    
   5 C5             8.1228     2.3206     0.7543 C.ar    
   6 C6             9.0728     3.2251     1.1904 C.ar    
   7 C7             5.8749     1.7861    -0.2082 C.3     
   8 N8             6.0723     1.5166    -1.6387 N.3     
   9 C9             7.3452     0.8204    -1.8727 C.3     
  10 C10            4.9467     0.7497    -2.1903 C.3     
  11 C11            5.1516     0.5588    -3.6950 C.3     
  12 N12            6.4244    -0.1374    -3.9290 N.3     
  13 C13            7.5501     0.6295    -3.3773 C.3     
  14 C14            6.6124    -0.3941    -5.2915 C.ar    
  15 C15            7.7595    -1.0472    -5.7234 C.ar    
  16 C16            7.9449    -1.3003    -7.0680 C.ar    
  17 C17            6.9847    -0.9021    -7.9883 C.ar    
  18 C18            5.8378    -0.2492    -7.5568 C.ar    
  19 C19            5.6494    -0.0009    -6.2117 C.ar    
  20 N20            7.1733    -1.1588    -9.3535 N.am    
  21 C21            7.7360    -2.3176    -9.7498 C.2     
  22 N22            7.8305    -2.6064   -11.0628 N.am    
  23 O23            8.1584    -3.1025    -8.9227 O.2     
  24 C24            8.5194    -3.7531   -11.4802 C.ar    
  25 C25            9.4365    -4.3702   -10.6389 C.ar    
  26 C26           10.0944    -5.5033   -11.0963 C.ar    
  27 C27            9.8206    -5.9799   -12.3625 C.ar    
  28 N28            8.9440    -5.3738   -13.1417 N.ar    
  29 C29            8.2905    -4.2959   -12.7452 C.ar    
  30 O30            7.3978    -3.7049   -13.5797 O.3     
  31 C31            7.1255    -4.3190   -14.7609 C.ar    
  32 C32            7.7135    -4.8019   -17.0342 C.ar    
  33 C33            7.9925    -4.1761   -15.8345 C.ar    
  34 C34            5.9825    -5.0949   -14.8937 C.ar    
  35 C35            5.7083    -5.7183   -16.0952 C.ar    
  36 C36            6.5717    -5.5703   -17.1653 C.ar    
  37 C37            5.0417    -5.2574   -13.7277 C.3     
  38 C38            3.8021    -6.0335   -14.1770 C.3     
  39 C39            5.7459    -6.0253   -12.6073 C.3     
  40 C40            4.6219    -3.8783   -13.2151 C.3     
  41 H41            9.5567     5.2885     1.4705 H       
  42 H42            7.3977     6.0932     0.6019 H       
  43 H43            5.7045     4.4818    -0.1723 H       
  44 H44            8.3263     1.2608     0.7975 H       
  45 H45           10.0190     2.8722     1.5730 H       
  46 H46            5.9740     0.8573     0.3536 H       
  47 H47            4.8796     2.2016    -0.0507 H       
  48 H48            8.1643     1.4138    -1.4665 H       
  49 H49            7.3228    -0.1529    -1.3824 H       
  50 H50            4.8970    -0.2244    -1.7037 H       
  51 H51            4.0172     1.2916    -2.0158 H       
  52 H52            4.3325    -0.0346    -4.1012 H       
  53 H53            5.1740     1.5321    -4.1853 H       
  54 H54            7.5997     1.6036    -3.8640 H       
  55 H55            8.4796     0.0876    -3.5519 H       
  56 H56            8.5067    -1.3566    -5.0075 H       
  57 H57            8.8371    -1.8079    -7.4039 H       
  58 H58            5.0912     0.0608    -8.2729 H       
  59 H59            4.7552     0.5030    -5.8756 H       
  60 H60            6.8988    -0.5025   -10.0128 H       
  61 H61            7.4216    -2.0205   -11.7189 H       
  62 H62            9.6332    -3.9772    -9.6523 H       
  63 H63           10.8138    -6.0072   -10.4678 H       
  64 H64           10.3313    -6.8613   -12.7212 H       
  65 H65            8.3881    -4.6910   -17.8702 H       
  66 H66            8.8846    -3.5759   -15.7326 H       
  67 H67            4.8190    -6.3222   -16.1991 H       
  68 H68            6.3553    -6.0584   -18.1041 H       
  69 H69            4.1011    -7.0160   -14.5422 H       
  70 H70            3.1216    -6.1511   -13.3337 H       
  71 H71            3.3004    -5.4864   -14.9752 H       
  72 H72            6.5195    -5.3966   -12.1665 H       
  73 H73            5.0196    -6.2982   -11.8418 H       
  74 H74            6.2002    -6.9281   -13.0155 H       
  75 H75            4.1202    -3.3312   -14.0133 H       
  76 H76            3.9413    -3.9958   -12.3718 H       
  77 H77            5.5050    -3.3253   -12.8950 H       
@<TRIPOS>BOND
   1    1    2 ar
   2    1    6 ar
   3    1   41 1
   4    2    3 ar
   5    2   42 1
   6    3    4 ar
   7    3   43 1
   8    4    5 ar
   9    4    7 1
  10    5    6 ar
  11    5   44 1
  12    6   45 1
  13    7    8 1
  14    7   46 1
  15    7   47 1
  16    8   10 1
  17    8    9 1
  18    9   13 1
  19    9   48 1
  20    9   49 1
  21   10   11 1
  22   10   50 1
  23   10   51 1
  24   11   12 1
  25   11   52 1
  26   11   53 1
  27   12   13 1
  28   12   14 1
  29   13   54 1
  30   13   55 1
  31   14   15 ar
  32   14   19 ar
  33   15   16 ar
  34   15   56 1
  35   16   17 ar
  36   16   57 1
  37   17   18 ar
  38   17   20 1
  39   18   19 ar
  40   18   58 1
  41   19   59 1
  42   20   21 am
  43   20   60 1
  44   21   22 am
  45   21   23 2
  46   22   24 1
  47   22   61 1
  48   24   25 ar
  49   24   29 ar
  50   25   26 ar
  51   25   62 1
  52   26   27 ar
  53   26   63 1
  54   27   28 ar
  55   27   64 1
  56   28   29 ar
  57   29   30 1
  58   30   31 1
  59   31   34 ar
  60   31   33 ar
  61   32   33 ar
  62   32   36 ar
  63   32   65 1
  64   33   66 1
  65   34   35 ar
  66   34   37 1
  67   35   36 ar
  68   35   67 1
  69   36   68 1
  70   37   38 1
  71   37   39 1
  72   37   40 1
  73   38   69 1
  74   38   70 1
  75   38   71 1
  76   39   72 1
  77   39   73 1
  78   39   74 1
  79   40   75 1
  80   40   76 1
  81   40   77 1

#	End of record

