#	Name: ASD01880500
#	Creating user name:	WinNT
#	Creation time:	15. 06. 2019 19:40

#	Modifying user name:	WinNT
#	Modification time:	15. 06. 2019 19:40

#	Program:	/corina/corina34_cracker 3.40 0067  02.08.2006

@<TRIPOS>MOLECULE
ASD01880500
  41   43    0    0    0
SMALL
NO_CHARGES


@<TRIPOS>ATOM
   1 N1            -0.0158     1.3149     0.0093 N.ar    
   2 C2             0.0021    -0.0041     0.0020 C.ar    
   3 N3             1.1337    -0.6824    -0.0120 N.ar    
   4 C4             2.2991    -0.0560    -0.0197 C.ar    
   5 C5             2.3200     1.3300    -0.0130 C.ar    
   6 C6             1.1115     2.0080     0.0022 C.ar    
   7 C7             3.6261     2.0818    -0.0209 C.3     
   8 O8             4.7109     1.1517    -0.0353 O.3     
   9 C9             1.0815     3.5147     0.0101 C.3     
  10 C10            5.9656     1.6687    -0.0440 C.ar    
  11 C11            7.0675     0.8190    -0.0582 C.ar    
  12 C12            8.3361     1.3432    -0.0674 C.ar    
  13 C13            8.5296     2.7286    -0.0626 C.ar    
  14 C14            7.4194     3.5776    -0.0487 C.ar    
  15 C15            6.1489     3.0463    -0.0445 C.ar    
  16 C16            9.7104     0.7216    -0.0830 C.3     
  17 N17           10.6644     1.8365    -0.0865 N.am    
  18 C18            9.9789     2.9925    -0.0747 C.2     
  19 O19           10.4832     4.0988    -0.0745 O.2     
  20 Cl20          -1.5025    -0.8700     0.0117 Cl      
  21 C21           14.1433     1.5411    -1.5615 C.3     
  22 C22           12.6191     1.6729    -1.5473 C.3     
  23 C23           12.1239     1.7103    -0.1001 C.3     
  24 H24            3.2218    -0.6171    -0.0309 H       
  25 H25            3.6767     2.7128    -0.9082 H       
  26 H26            3.6927     2.7038     0.8717 H       
  27 H27            1.0642     3.8831    -1.0156 H       
  28 H28            0.1895     3.8576     0.5344 H       
  29 H29            1.9690     3.8932     0.5173 H       
  30 H30            6.9247    -0.2515    -0.0616 H       
  31 H31            7.5578     4.6487    -0.0445 H       
  32 H32            5.2914     3.7029    -0.0342 H       
  33 H33            9.8543     0.1081     0.8065 H       
  34 H34            9.8378     0.1166    -0.9807 H       
  35 H35           14.5866     2.3942    -1.0477 H       
  36 H36           14.4332     0.6209    -1.0543 H       
  37 H37           14.4961     1.5145    -2.5925 H       
  38 H38           12.3292     2.5932    -2.0544 H       
  39 H39           12.1758     0.8198    -2.0610 H       
  40 H40           12.5671     2.5634     0.4136 H       
  41 H41           12.4138     0.7901     0.4070 H       
@<TRIPOS>BOND
   1    1    2 ar
   2    1    6 ar
   3    2    3 ar
   4    2   20 1
   5    3    4 ar
   6    4    5 ar
   7    4   24 1
   8    5    6 ar
   9    5    7 1
  10    6    9 1
  11    7    8 1
  12    7   25 1
  13    7   26 1
  14    8   10 1
  15    9   27 1
  16    9   28 1
  17    9   29 1
  18   10   11 ar
  19   10   15 ar
  20   11   12 ar
  21   11   30 1
  22   12   13 ar
  23   12   16 1
  24   13   14 ar
  25   13   18 1
  26   14   15 ar
  27   14   31 1
  28   15   32 1
  29   16   17 1
  30   16   33 1
  31   16   34 1
  32   17   18 am
  33   17   23 1
  34   18   19 2
  35   21   22 1
  36   21   35 1
  37   21   36 1
  38   21   37 1
  39   22   23 1
  40   22   38 1
  41   22   39 1
  42   23   40 1
  43   23   41 1

#	End of record

