#	Name: ASD01200365
#	Creating user name:	WinNT
#	Creation time:	15. 06. 2019 19:09

#	Modifying user name:	WinNT
#	Modification time:	15. 06. 2019 19:09

#	Program:	/corina/corina34_cracker 3.40 0067  02.08.2006

@<TRIPOS>MOLECULE
ASD01200365
  62   66    0    0    0
SMALL
NO_CHARGES


@<TRIPOS>ATOM
   1 C1            -0.2374     1.6490    -0.6579 C.ar    
   2 C2            -0.2706     0.3178    -0.9620 C.ar    
   3 C3             0.9044    -0.4140    -1.0843 C.ar    
   4 C4             2.1177     0.1836    -0.9027 C.ar    
   5 C5             2.1781     1.5465    -0.5908 C.ar    
   6 C6             0.9863     2.2863    -0.4673 C.ar    
   7 C7             3.2693     2.4815    -0.3367 C.2     
   8 N8             2.7446     3.6480    -0.0913 N.2     
   9 N9             1.3498     3.5719    -0.1620 N.pl3   
  10 C10            0.4255     4.6873     0.0563 C.3     
  11 C11            0.6170     5.2390     1.4705 C.3     
  12 C12            0.7042     5.7748    -0.9491 C.2     
  13 N13            0.1303     5.7291    -2.1677 N.am    
  14 O14            1.4450     6.6911    -0.6616 O.2     
  15 C15           -0.4435     6.3059     1.7497 C.3     
  16 C16           -2.8747     6.7147     2.1392 C.3     
  17 C17           -1.8296     5.6547     1.7818 C.3     
  18 C18           -0.1673     6.9602     3.1069 C.3     
  19 C19           -1.2766     7.9698     3.4132 C.3     
  20 O20           -2.5415     7.3050     3.3973 O.3     
  21 C21            0.4657     6.6747    -3.1297 C.2     
  22 S22            3.6002    -0.7558    -1.0595 S.o2    
  23 O23            4.3220    -0.4727     0.1314 O.2     
  24 O24            3.1516    -2.0727    -1.3488 O.2     
  25 C25            4.4402    -0.0389    -2.4986 C.3     
  26 C26            5.7247    -0.7182    -2.9776 C.3     
  27 C27            4.4382    -0.8514    -3.7950 C.3     
  28 N28            1.3194     7.6353    -2.9607 N.2     
  29 S29           -0.1824     6.7356    -4.7106 S.3     
  30 C30            0.7988     8.1541    -5.0695 C.2     
  31 C31            1.5178     8.4454    -3.9837 C.2     
  32 C32            0.8254     8.9044    -6.3762 C.3     
  33 C33            1.8814     8.3127    -7.2738 C.2     
  34 O34            2.5469     7.3741    -6.8903 O.2     
  35 N35            2.0863     8.8265    -8.5028 N.am    
  36 H36           -1.1578     2.2071    -0.5698 H       
  37 H37           -1.2218    -0.1722    -1.1089 H       
  38 H38            0.8569    -1.4658    -1.3251 H       
  39 H39            4.3236     2.2478    -0.3495 H       
  40 H40           -0.6001     4.3378    -0.0615 H       
  41 H41            0.5166     4.4291     2.1931 H       
  42 H42            1.6093     5.6817     1.5566 H       
  43 H43           -0.5168     5.0364    -2.3733 H       
  44 H44           -0.4132     7.0637     0.9667 H       
  45 H45           -2.8891     7.4854     1.3685 H       
  46 H46           -3.8576     6.2483     2.2055 H       
  47 H47           -2.0573     5.2344     0.8022 H       
  48 H48           -1.8428     4.8630     2.5308 H       
  49 H49           -0.1469     6.1948     3.8828 H       
  50 H50            0.7937     7.4735     3.0750 H       
  51 H51           -1.1083     8.4074     4.3972 H       
  52 H52           -1.2701     8.7568     2.6591 H       
  53 H53            4.3827     1.0462    -2.5842 H       
  54 H54            6.5121    -0.0800    -3.3788 H       
  55 H55            6.0650    -1.5958    -2.4281 H       
  56 H56            3.9321    -1.8168    -3.7831 H       
  57 H57            4.3792    -0.3009    -4.7339 H       
  58 H58            2.2073     9.2757    -3.9457 H       
  59 H59           -0.1482     8.8261    -6.8600 H       
  60 H60            1.0544     9.9534    -6.1882 H       
  61 H61            1.5541     9.5772    -8.8096 H       
  62 H62            2.7660     8.4456    -9.0806 H       
@<TRIPOS>BOND
   1    1    2 ar
   2    1    6 ar
   3    1   36 1
   4    2    3 ar
   5    2   37 1
   6    3    4 ar
   7    3   38 1
   8    4    5 ar
   9    4   22 1
  10    5    7 1
  11    5    6 ar
  12    6    9 1
  13    7    8 2
  14    7   39 1
  15    8    9 1
  16    9   10 1
  17   10   11 1
  18   10   12 1
  19   10   40 1
  20   11   15 1
  21   11   41 1
  22   11   42 1
  23   12   13 am
  24   12   14 2
  25   13   21 1
  26   13   43 1
  27   15   18 1
  28   15   17 1
  29   15   44 1
  30   16   17 1
  31   16   20 1
  32   16   45 1
  33   16   46 1
  34   17   47 1
  35   17   48 1
  36   18   19 1
  37   18   49 1
  38   18   50 1
  39   19   20 1
  40   19   51 1
  41   19   52 1
  42   21   29 1
  43   21   28 2
  44   22   23 2
  45   22   24 2
  46   22   25 1
  47   25   26 1
  48   25   27 1
  49   25   53 1
  50   26   27 1
  51   26   54 1
  52   26   55 1
  53   27   56 1
  54   27   57 1
  55   28   31 1
  56   29   30 1
  57   30   31 2
  58   30   32 1
  59   31   58 1
  60   32   33 1
  61   32   59 1
  62   32   60 1
  63   33   34 2
  64   33   35 am
  65   35   61 1
  66   35   62 1

#	End of record

