#	Name: ASD00450035
#	Creating user name:	WinNT
#	Creation time:	15. 06. 2019 18:36

#	Modifying user name:	WinNT
#	Modification time:	15. 06. 2019 18:36

#	Program:	/corina/corina34_cracker 3.40 0067  02.08.2006

@<TRIPOS>MOLECULE
ASD00450035
  38   40    0    0    0
SMALL
NO_CHARGES


@<TRIPOS>ATOM
   1 C1            -0.2039     1.4667     0.2842 C.ar    
   2 C2            -0.3667     0.0726     0.3110 C.ar    
   3 C3             0.7383    -0.7461     0.4660 C.ar    
   4 C4             2.0036    -0.1948     0.5951 C.ar    
   5 C5             2.1767     1.1783     0.5707 C.ar    
   6 C6             1.0826     2.0167     0.4153 C.ar    
   7 C7            -1.3706     2.3450     0.1140 C.2     
   8 O8            -1.9795     2.7432     1.0889 O.2     
   9 N9            -1.7654     2.7089    -1.1222 N.am    
  10 N10            1.2578     3.3946     0.3900 N.pl3   
  11 C11            2.3397     3.9746     1.0612 C.ar    
  12 C12            2.7583     5.2594     0.7297 C.ar    
  13 C13            2.9943     3.2718     2.0633 C.ar    
  14 C14            4.0625     3.8470     2.7246 C.ar    
  15 C15            4.4807     5.1219     2.3897 C.ar    
  16 C16            3.8277     5.8288     1.3953 C.ar    
  17 F17            3.0753    -1.0034     0.7464 F       
  18 F18            2.1209     5.9491    -0.2415 F       
  19 I19            6.1010     5.9885     3.3961 I       
  20 O20           -1.6035    -0.4704     0.1859 O.3     
  21 C21           -1.7279    -1.8154     0.3356 C.ar    
  22 C22           -1.7157    -2.3884     1.6032 C.ar    
  23 C23           -1.8457    -3.7642     1.7053 C.ar    
  24 C24           -1.9821    -4.5164     0.5537 C.ar    
  25 N25           -1.9897    -3.9419    -0.6334 N.ar    
  26 C26           -1.8746    -2.6364    -0.7736 C.ar    
  27 H27            0.6143    -1.8188     0.4868 H       
  28 H28            3.1665     1.5981     0.6728 H       
  29 H29           -1.2799     2.3914    -1.8996 H       
  30 H30           -2.5351     3.2884    -1.2345 H       
  31 H31            0.6301     3.9546    -0.0930 H       
  32 H32            2.6686     2.2762     2.3263 H       
  33 H33            4.5715     3.3002     3.5046 H       
  34 H34            4.1538     6.8260     1.1390 H       
  35 H35           -1.6073    -1.7760     2.4862 H       
  36 H36           -1.8401    -4.2432     2.6732 H       
  37 H37           -2.0834    -5.5891     0.6271 H       
  38 H38           -1.8851    -2.2021    -1.7623 H       
@<TRIPOS>BOND
   1    1    2 ar
   2    1    6 ar
   3    1    7 1
   4    2    3 ar
   5    2   20 1
   6    3    4 ar
   7    3   27 1
   8    4    5 ar
   9    4   17 1
  10    5    6 ar
  11    5   28 1
  12    6   10 1
  13    7    8 2
  14    7    9 am
  15    9   29 1
  16    9   30 1
  17   10   11 1
  18   10   31 1
  19   11   13 ar
  20   11   12 ar
  21   12   16 ar
  22   12   18 1
  23   13   14 ar
  24   13   32 1
  25   14   15 ar
  26   14   33 1
  27   15   16 ar
  28   15   19 1
  29   16   34 1
  30   20   21 1
  31   21   22 ar
  32   21   26 ar
  33   22   23 ar
  34   22   35 1
  35   23   24 ar
  36   23   36 1
  37   24   25 ar
  38   24   37 1
  39   25   26 ar
  40   26   38 1

#	End of record

