#	Name: ASD01410499
#	Creating user name:	WinNT
#	Creation time:	15. 06. 2019 19:17

#	Modifying user name:	WinNT
#	Modification time:	15. 06. 2019 19:17

#	Program:	/corina/corina34_cracker 3.40 0067  02.08.2006

@<TRIPOS>MOLECULE
ASD01410499
  74   77    0    0    0
SMALL
NO_CHARGES


@<TRIPOS>ATOM
   1 C1             3.8356     6.1554    -2.7306 C.ar    
   2 C2             4.5688     5.7450    -3.8353 C.ar    
   3 C3             5.4295     4.6718    -3.7142 C.ar    
   4 N4             5.5609     4.0366    -2.5654 N.ar    
   5 C5             4.8795     4.3980    -1.4905 C.ar    
   6 C6             3.9958     5.4685    -1.5396 C.ar    
   7 O7             5.0451     3.7163    -0.3294 O.3     
   8 C8             5.8396     2.6124    -0.3448 C.ar    
   9 C9             7.2215     2.7502    -0.2413 C.ar    
  10 C10            8.0373     1.6341    -0.2555 C.ar    
  11 C11            7.4827     0.3680    -0.3738 C.ar    
  12 C12            6.0901     0.2235    -0.4785 C.ar    
  13 C13            5.2728     1.3578    -0.4574 C.ar    
  14 F14            7.7677     3.9805    -0.1268 F       
  15 N15            8.3049    -0.7565    -0.3890 N.am    
  16 C16            8.6994    -1.3186     0.7706 C.2     
  17 C17            8.7408    -1.3279    -1.6656 C.3     
  18 O18            9.3684    -2.3338     0.7574 O.2     
  19 C19            8.3194    -0.7019     2.0565 C.ar    
  20 C20            7.0841    -0.0629     2.1906 C.ar    
  21 C21            6.7349     0.5111     3.3936 C.ar    
  22 C22            7.6055     0.4569     4.4709 C.ar    
  23 C23            8.8310    -0.1734     4.3475 C.ar    
  24 C24            9.1918    -0.7594     3.1485 C.ar    
  25 C25            4.4268     6.4624    -5.1529 C.3     
  26 C26            5.4290     7.5856    -5.2239 C.ar    
  27 C27            8.1871    -0.4858    -2.8169 C.3     
  28 C28           10.2696    -1.3328    -1.7267 C.3     
  29 C29            6.1653     0.0202    -4.0007 C.3     
  30 O30            6.7839    -0.7221    -2.9479 O.3     
  31 Cl31           7.1561     1.1837     5.9821 Cl      
  32 O32           10.7786    -2.3273    -0.8357 O.3     
  33 C33           12.2048    -2.4150    -0.8163 C.3     
  34 F34           10.3884    -1.3748     3.0280 F       
  35 C35            6.3090     7.6493    -6.2874 C.ar    
  36 C36            7.2274     8.6869    -6.3433 C.ar    
  37 C37            7.2257     9.6252    -5.3228 C.ar    
  38 C38            6.3153     9.4963    -4.2908 C.ar    
  39 N39            5.4525     8.4992    -4.2731 N.ar    
  40 C40            6.3047    10.5101    -3.1759 C.3     
  41 C41            5.4927    -1.1164    -0.6048 C.2     
  42 O42            6.1882    -2.1056    -0.4834 O.2     
  43 O43            4.1748    -1.2458    -0.8552 O.3     
  44 C44            3.2221     5.8768    -0.3126 C.3     
  45 F45            2.4072     6.9722    -0.6182 F       
  46 F46            2.4262     4.8083     0.1140 F       
  47 F47            4.1145     6.2292     0.7056 F       
  48 H48            3.1589     6.9944    -2.7975 H       
  49 H49            6.0021     4.3483    -4.5709 H       
  50 H50            9.1083     1.7480    -0.1748 H       
  51 H51            4.2008     1.2537    -0.5374 H       
  52 H52            8.3704    -2.3494    -1.7518 H       
  53 H53            6.4043    -0.0186     1.3525 H       
  54 H54            5.7801     1.0050     3.4973 H       
  55 H55            9.5049    -0.2115     5.1906 H       
  56 H56            4.6069     5.7626    -5.9689 H       
  57 H57            3.4190     6.8688    -5.2385 H       
  58 H58            8.3600     0.5704    -2.6103 H       
  59 H59            8.6902    -0.7619    -3.7436 H       
  60 H60           10.5919    -1.5569    -2.7436 H       
  61 H61           10.6481    -0.3538    -1.4330 H       
  62 H62            5.1015    -0.2147    -4.0344 H       
  63 H63            6.2963     1.0869    -3.8187 H       
  64 H64            6.6264    -0.2454    -4.9520 H       
  65 H65           12.5673    -2.6616    -1.8143 H       
  66 H66           12.6235    -1.4584    -0.5037 H       
  67 H67           12.5115    -3.1921    -0.1161 H       
  68 H68            6.2822     6.9004    -7.0650 H       
  69 H69            7.9274     8.7620    -7.1622 H       
  70 H70            7.9272    10.4463    -5.3338 H       
  71 H71            5.6269    11.3244    -3.4317 H       
  72 H72            5.9691    10.0337    -2.2547 H       
  73 H73            7.3107    10.9054    -3.0348 H       
  74 H74            3.8283    -2.1455    -0.9297 H       
@<TRIPOS>BOND
   1    1    2 ar
   2    1    6 ar
   3    1   48 1
   4    2    3 ar
   5    2   25 1
   6    3    4 ar
   7    3   49 1
   8    4    5 ar
   9    5    6 ar
  10    5    7 1
  11    6   44 1
  12    7    8 1
  13    8    9 ar
  14    8   13 ar
  15    9   10 ar
  16    9   14 1
  17   10   11 ar
  18   10   50 1
  19   11   12 ar
  20   11   15 1
  21   12   13 ar
  22   12   41 1
  23   13   51 1
  24   15   16 am
  25   15   17 1
  26   16   18 2
  27   16   19 1
  28   17   28 1
  29   17   27 1
  30   17   52 1
  31   19   20 ar
  32   19   24 ar
  33   20   21 ar
  34   20   53 1
  35   21   22 ar
  36   21   54 1
  37   22   23 ar
  38   22   31 1
  39   23   24 ar
  40   23   55 1
  41   24   34 1
  42   25   26 1
  43   25   56 1
  44   25   57 1
  45   26   35 ar
  46   26   39 ar
  47   27   30 1
  48   27   58 1
  49   27   59 1
  50   28   32 1
  51   28   60 1
  52   28   61 1
  53   29   30 1
  54   29   62 1
  55   29   63 1
  56   29   64 1
  57   32   33 1
  58   33   65 1
  59   33   66 1
  60   33   67 1
  61   35   36 ar
  62   35   68 1
  63   36   37 ar
  64   36   69 1
  65   37   38 ar
  66   37   70 1
  67   38   39 ar
  68   38   40 1
  69   40   71 1
  70   40   72 1
  71   40   73 1
  72   41   42 2
  73   41   43 1
  74   43   74 1
  75   44   45 1
  76   44   46 1
  77   44   47 1

#	End of record

