#	Name: ASD03320166
#	Creating user name:	WinNT
#	Creation time:	15. 06. 2019 20:36

#	Modifying user name:	WinNT
#	Modification time:	15. 06. 2019 20:36

#	Program:	/corina/corina34_cracker 3.40 0067  02.08.2006

@<TRIPOS>MOLECULE
ASD03320166
  40   42    0    0    0
SMALL
NO_CHARGES


@<TRIPOS>ATOM
   1 C1            -0.0077     1.3438    -0.1947 C.ar    
   2 C2             0.0217    -0.0349     0.0277 C.ar    
   3 C3            -1.1527    -0.7584     0.0440 C.ar    
   4 C4            -2.3657    -0.1235    -0.1595 C.ar    
   5 C5            -2.4069     1.2548    -0.3822 C.ar    
   6 C6            -1.2282     1.9895    -0.3946 C.ar    
   7 C7             1.2504     2.1176    -0.2119 C.2     
   8 O8             1.2235     3.3176    -0.4056 O.2     
   9 N9             2.4283     1.4934    -0.0131 N.am    
  10 C10            3.6273     2.2079    -0.1264 C.ar    
  11 C11           -3.7092     1.9344    -0.6003 C.2     
  12 C12            3.6884     3.5323     0.2864 C.ar    
  13 C13            4.8711     4.2361     0.1748 C.ar    
  14 C14            5.9981     3.6205    -0.3500 C.ar    
  15 C15            5.9377     2.2975    -0.7631 C.ar    
  16 C16            4.7573     1.5906    -0.6464 C.ar    
  17 O17            7.1623     4.3143    -0.4600 O.3     
  18 C18            8.2829     3.6181    -1.0092 C.3     
  19 F19            7.9765     3.1901    -2.3054 F       
  20 F20            9.3891     4.4737    -1.0499 F       
  21 F21            8.5803     2.5091    -0.2100 F       
  22 F22           -3.5119    -0.8384    -0.1430 F       
  23 C23           -4.6809     1.5520    -1.4782 C.2     
  24 N24           -5.6982     2.4306    -1.3689 N.pl3   
  25 N25           -5.3526     3.3817    -0.4013 N.2     
  26 C26           -4.1682     3.0871     0.0659 C.2     
  27 C27           -6.9486     2.3961    -2.1314 C.3     
  28 H28            0.9654    -0.5353     0.1866 H       
  29 H29           -1.1255    -1.8243     0.2159 H       
  30 H30           -1.2557     3.0554    -0.5661 H       
  31 H31            2.4454     0.5492     0.2085 H       
  32 H32            2.8109     4.0119     0.6944 H       
  33 H33            4.9188     5.2662     0.4959 H       
  34 H34            6.8153     1.8192    -1.1722 H       
  35 H35            4.7105     0.5607    -0.9680 H       
  36 H36           -4.6423     0.7001    -2.1410 H       
  37 H37           -3.6314     3.6366     0.8251 H       
  38 H38           -7.6865     1.8018    -1.5925 H       
  39 H39           -7.3238     3.4114    -2.2602 H       
  40 H40           -6.7660     1.9495    -3.1088 H       
@<TRIPOS>BOND
   1    1    2 ar
   2    1    7 1
   3    1    6 ar
   4    2    3 ar
   5    2   28 1
   6    3    4 ar
   7    3   29 1
   8    4    5 ar
   9    4   22 1
  10    5    6 ar
  11    5   11 1
  12    6   30 1
  13    7    8 2
  14    7    9 am
  15    9   10 1
  16    9   31 1
  17   10   12 ar
  18   10   16 ar
  19   11   23 2
  20   11   26 1
  21   12   13 ar
  22   12   32 1
  23   13   14 ar
  24   13   33 1
  25   14   15 ar
  26   14   17 1
  27   15   16 ar
  28   15   34 1
  29   16   35 1
  30   17   18 1
  31   18   19 1
  32   18   20 1
  33   18   21 1
  34   23   24 1
  35   23   36 1
  36   24   25 1
  37   24   27 1
  38   25   26 2
  39   26   37 1
  40   27   38 1
  41   27   39 1
  42   27   40 1

#	End of record

