#	Name: ASD06350005
#	Creating user name:	WinNT
#	Creation time:	15. 06. 2019 21:06

#	Modifying user name:	WinNT
#	Modification time:	15. 06. 2019 21:06

#	Program:	/corina/corina34_cracker 3.40 0067  02.08.2006

@<TRIPOS>MOLECULE
ASD06350005
  28   29    0    0    0
SMALL
NO_CHARGES


@<TRIPOS>ATOM
   1 C1            -0.0176     1.4478     0.0100 C.3     
   2 O2             0.0021    -0.0041     0.0020 O.3     
   3 C3            -1.1908    -0.6324     0.0100 C.2     
   4 O4            -2.2192     0.0157     0.0233 O.2     
   5 C5            -1.2477    -2.1005     0.0027 C.2     
   6 C6            -2.4750    -2.7631     0.0109 C.2     
   7 C7            -2.4896    -4.1571     0.0036 C.2     
   8 C8            -1.3223    -4.8510    -0.0113 C.2     
   9 N9            -0.1261    -4.2138    -0.0188 N.am    
  10 C10           -0.0553    -2.8691    -0.0187 C.2     
  11 O11            1.0298    -2.3140    -0.0260 O.2     
  12 C12            1.0559    -4.9664    -0.0332 C.ar    
  13 C13            1.6314    -5.3337    -1.2415 C.ar    
  14 C14            2.7966    -6.0756    -1.2538 C.ar    
  15 C15            3.3914    -6.4540    -0.0620 C.ar    
  16 C16            2.8203    -6.0895     1.1460 C.ar    
  17 C17            1.6574    -5.3417     1.1636 C.ar    
  18 F18            1.1002    -4.9854     2.3417 F       
  19 F19            4.5304    -7.1804    -0.0774 F       
  20 H20            1.0050     1.8251     0.0023 H       
  21 H21           -0.5448     1.8089    -0.8731 H       
  22 H22           -0.5278     1.7993     0.9068 H       
  23 H23           -3.3995    -2.2049     0.0230 H       
  24 H24           -3.4311    -4.6862     0.0101 H       
  25 H25           -1.3477    -5.9307    -0.0168 H       
  26 H26            1.1683    -5.0398    -2.1719 H       
  27 H27            3.2442    -6.3613    -2.1943 H       
  28 H28            3.2858    -6.3857     2.0744 H       
@<TRIPOS>BOND
   1    1    2 1
   2    1   20 1
   3    1   21 1
   4    1   22 1
   5    2    3 1
   6    3    4 2
   7    3    5 1
   8    5    6 2
   9    5   10 1
  10    6    7 1
  11    6   23 1
  12    7    8 2
  13    7   24 1
  14    8    9 1
  15    8   25 1
  16    9   10 am
  17    9   12 1
  18   10   11 2
  19   12   13 ar
  20   12   17 ar
  21   13   14 ar
  22   13   26 1
  23   14   15 ar
  24   14   27 1
  25   15   16 ar
  26   15   19 1
  27   16   17 ar
  28   16   28 1
  29   17   18 1

#	End of record

