#	Name: ASD01001224
#	Creating user name:	WinNT
#	Creation time:	15. 06. 2019 18:55

#	Modifying user name:	WinNT
#	Modification time:	15. 06. 2019 18:55

#	Program:	/corina/corina34_cracker 3.40 0067  02.08.2006

@<TRIPOS>MOLECULE
ASD01001224
  70   73    0    0    0
SMALL
NO_CHARGES


@<TRIPOS>ATOM
   1 C1             0.5291     1.7303     2.0151 C.ar    
   2 C2             0.6089     0.4483     2.5427 C.ar    
   3 C3             1.6946    -0.3592     2.2700 C.ar    
   4 C4             2.7206     0.1103     1.4604 C.ar    
   5 C5             2.6380     1.4077     0.9275 C.ar    
   6 C6             1.5366     2.2140     1.2099 C.ar    
   7 Cl7           -0.6698    -0.1448     3.5560 Cl      
   8 C8             3.7409     1.8827     0.0705 C.2     
   9 C9             4.8183     0.9859    -0.1572 C.2     
  10 O10            3.7918    -0.6597     1.1800 O.3     
  11 O11            3.7277     2.9980    -0.4219 O.2     
  12 C12            4.7952    -0.2365     0.4038 C.2     
  13 C13            5.9802     1.4010    -1.0225 C.3     
  14 C14            5.6142     1.2244    -2.4736 C.ar    
  15 C15            4.8972     2.2072    -3.1301 C.ar    
  16 C16            4.5614     2.0453    -4.4612 C.ar    
  17 C17            4.9429     0.9007    -5.1360 C.ar    
  18 C18            5.6606    -0.0817    -4.4797 C.ar    
  19 C19            6.0002     0.0822    -3.1498 C.ar    
  20 C20            5.9502    -1.1696     0.1464 C.3     
  21 N21            5.4659    -2.3671    -0.5447 N.am    
  22 C22            6.5874    -1.5719     1.4779 C.3     
  23 C23            7.7601    -2.5192     1.2166 C.3     
  24 C24            7.0932    -0.3212     2.1997 C.3     
  25 C25            6.1851    -2.9012    -1.5517 C.2     
  26 O26            7.2439    -2.3994    -1.8751 O.2     
  27 C27            4.1999    -2.9841    -0.1412 C.3     
  28 C28            3.0349    -2.2104    -0.7617 C.3     
  29 C29            1.7151    -2.8852    -0.3827 C.3     
  30 N30            0.5966    -2.1423    -0.9785 N.3     
  31 C31            5.6861    -4.0974    -2.2631 C.ar    
  32 C32            6.5760    -4.9313    -2.9419 C.ar    
  33 C33            6.1039    -6.0461    -3.6032 C.ar    
  34 C34            4.7515    -6.3381    -3.5950 C.ar    
  35 C35            3.8640    -5.5156    -2.9241 C.ar    
  36 C36            4.3237    -4.4008    -2.2539 C.ar    
  37 C37            4.2428    -7.5571    -4.3205 C.3     
  38 H38           -0.3286     2.3491     2.2334 H       
  39 H39            1.7464    -1.3546     2.6861 H       
  40 H40            1.4735     3.2111     0.7997 H       
  41 H41            6.2189     2.4475    -0.8327 H       
  42 H42            6.8467     0.7825    -0.7885 H       
  43 H43            4.5992     3.1015    -2.6030 H       
  44 H44            4.0007     2.8128    -4.9740 H       
  45 H45            4.6799     0.7738    -6.1758 H       
  46 H46            5.9584    -0.9761    -5.0068 H       
  47 H47            6.5609    -0.6853    -2.6371 H       
  48 H48            6.6921    -0.6670    -0.4742 H       
  49 H49            5.8456    -2.0745     2.0986 H       
  50 H50            8.5019    -2.0166     0.5960 H       
  51 H51            8.2141    -2.8058     2.1652 H       
  52 H52            7.3998    -3.4102     0.7024 H       
  53 H53            6.2578     0.3537     2.3859 H       
  54 H54            7.5472    -0.6078     3.1484 H       
  55 H55            7.8350     0.1814     1.5791 H       
  56 H56            4.1737    -4.0180    -0.4853 H       
  57 H57            4.1142    -2.9605     0.9451 H       
  58 H58            3.0395    -1.1861    -0.3890 H       
  59 H59            3.1407    -2.2027    -1.8466 H       
  60 H60            1.7106    -3.9094    -0.7555 H       
  61 H61            1.6094    -2.8929     0.7021 H       
  62 H62            0.7054    -2.0655    -1.9786 H       
  63 H63           -0.2870    -2.5685    -0.7425 H       
  64 H64            7.6318    -4.7041    -2.9496 H       
  65 H65            6.7914    -6.6922    -4.1289 H       
  66 H66            2.8095    -5.7491    -2.9215 H       
  67 H67            3.6300    -3.7598    -1.7303 H       
  68 H68            4.2462    -8.4110    -3.6429 H       
  69 H69            3.2265    -7.3744    -4.6696 H       
  70 H70            4.8877    -7.7677    -5.1736 H       
@<TRIPOS>BOND
   1    1    2 ar
   2    1    6 ar
   3    1   38 1
   4    2    3 ar
   5    2    7 1
   6    3    4 ar
   7    3   39 1
   8    4    5 ar
   9    4   10 1
  10    5    6 ar
  11    5    8 1
  12    6   40 1
  13    8    9 1
  14    8   11 2
  15    9   12 2
  16    9   13 1
  17   10   12 1
  18   12   20 1
  19   13   14 1
  20   13   41 1
  21   13   42 1
  22   14   15 ar
  23   14   19 ar
  24   15   16 ar
  25   15   43 1
  26   16   17 ar
  27   16   44 1
  28   17   18 ar
  29   17   45 1
  30   18   19 ar
  31   18   46 1
  32   19   47 1
  33   20   21 1
  34   20   22 1
  35   20   48 1
  36   21   25 am
  37   21   27 1
  38   22   23 1
  39   22   24 1
  40   22   49 1
  41   23   50 1
  42   23   51 1
  43   23   52 1
  44   24   53 1
  45   24   54 1
  46   24   55 1
  47   25   26 2
  48   25   31 1
  49   27   28 1
  50   27   56 1
  51   27   57 1
  52   28   29 1
  53   28   58 1
  54   28   59 1
  55   29   30 1
  56   29   60 1
  57   29   61 1
  58   30   62 1
  59   30   63 1
  60   31   32 ar
  61   31   36 ar
  62   32   33 ar
  63   32   64 1
  64   33   34 ar
  65   33   65 1
  66   34   35 ar
  67   34   37 1
  68   35   36 ar
  69   35   66 1
  70   36   67 1
  71   37   68 1
  72   37   69 1
  73   37   70 1

#	End of record

