#	Name: ASD04840015
#	Creating user name:	WinNT
#	Creation time:	15. 06. 2019 20:52

#	Modifying user name:	WinNT
#	Modification time:	15. 06. 2019 20:52

#	Program:	/corina/corina34_cracker 3.40 0067  02.08.2006

@<TRIPOS>MOLECULE
ASD04840015
  37   39    0    0    0
SMALL
NO_CHARGES


@<TRIPOS>ATOM
   1 Cl1            0.8025    -0.2938     0.4992 Cl      
   2 C2             0.4935     1.4033     0.3044 C.ar    
   3 C3             1.5250     2.3028     0.2363 C.ar    
   4 C4             1.2536     3.6558     0.0803 C.ar    
   5 N5             0.0209     4.1042    -0.0050 N.ar    
   6 C6            -1.0214     3.2807     0.0545 C.ar    
   7 C7            -0.8214     1.8909     0.2064 C.ar    
   8 C8            -1.9301     1.0174     0.2685 C.ar    
   9 C9            -3.1945     1.4799     0.1855 C.ar    
  10 C10           -3.4638     2.8598     0.0327 C.ar    
  11 C11           -2.3962     3.7822    -0.0413 C.ar    
  12 C12           -2.6659     5.1440    -0.1930 C.ar    
  13 C13           -3.9603     5.5727    -0.2686 C.ar    
  14 C14           -5.0136     4.6685    -0.1963 C.ar    
  15 C15           -4.7815     3.3320    -0.0532 C.ar    
  16 C16            2.3988     4.6327     0.0076 C.3     
  17 C17            2.9456     4.6722    -1.4209 C.3     
  18 P18            1.6783     5.3574    -2.5379 P.3     
  19 O19            1.2291     6.6718    -2.0271 O.2     
  20 O20            2.3026     5.5389    -4.0108 O.3     
  21 O21            0.4233     4.3512    -2.6072 O.3     
  22 C22            4.1760     5.5412    -1.4639 C.2     
  23 O23            5.2720     5.0420    -1.3661 O.2     
  24 O24            4.0545     6.8698    -1.6111 O.3     
  25 H25            2.5470     1.9603     0.3042 H       
  26 H26           -1.7617    -0.0431     0.3845 H       
  27 H27           -4.0175     0.7824     0.2364 H       
  28 H28           -1.8547     5.8547    -0.2499 H       
  29 H29           -4.1680     6.6260    -0.3856 H       
  30 H30           -6.0299     5.0288    -0.2578 H       
  31 H31           -5.6096     2.6409     0.0016 H       
  32 H32            2.0481     5.6254     0.2899 H       
  33 H33            3.1883     4.3185     0.6902 H       
  34 H34            3.2029     3.6620    -1.7395 H       
  35 H35            1.6827     5.9002    -4.6590 H       
  36 H36            0.6446     3.4684    -2.9341 H       
  37 H37            4.8721     7.3857    -1.6331 H       
@<TRIPOS>BOND
   1    1    2 1
   2    2    3 ar
   3    2    7 ar
   4    3    4 ar
   5    3   25 1
   6    4    5 ar
   7    4   16 1
   8    5    6 ar
   9    6    7 ar
  10    6   11 ar
  11    7    8 ar
  12    8    9 ar
  13    8   26 1
  14    9   10 ar
  15    9   27 1
  16   10   11 ar
  17   10   15 ar
  18   11   12 ar
  19   12   13 ar
  20   12   28 1
  21   13   14 ar
  22   13   29 1
  23   14   15 ar
  24   14   30 1
  25   15   31 1
  26   16   17 1
  27   16   32 1
  28   16   33 1
  29   17   18 1
  30   17   22 1
  31   17   34 1
  32   18   19 2
  33   18   20 1
  34   18   21 1
  35   20   35 1
  36   21   36 1
  37   22   23 2
  38   22   24 1
  39   24   37 1

#	End of record

