#	Name: ASD01903213
#	Creating user name:	WinNT
#	Creation time:	15. 06. 2019 19:54

#	Modifying user name:	WinNT
#	Modification time:	15. 06. 2019 19:54

#	Program:	/corina/corina34_cracker 3.40 0067  02.08.2006

@<TRIPOS>MOLECULE
ASD01903213
  39   42    0    0    0
SMALL
NO_CHARGES


@<TRIPOS>ATOM
   1 S1            -0.0242     1.7576    -0.0301 S.3     
   2 C2             0.0013    -0.0032    -0.0097 C.2     
   3 N3             1.2320    -0.4153    -0.0142 N.2     
   4 C4             2.1769     0.5142    -0.0322 C.2     
   5 C5             1.7377     1.7832    -0.0437 C.2     
   6 N6            -1.1185    -0.8216     0.0087 N.pl3   
   7 C7            -2.3870    -0.2623     0.1288 C.ar    
   8 C8             3.6232     0.1751    -0.0387 C.2     
   9 C9             4.1737    -1.1208    -0.0277 C.2     
  10 N10            5.4760    -1.0096    -0.0392 N.2     
  11 N11            5.8058     0.3511    -0.0578 N.pl3   
  12 C12            4.6585     1.0624    -0.0624 C.2     
  13 N13           -2.5133     1.0402     0.3305 N.ar    
  14 C14           -3.6974     1.6102     0.4494 C.ar    
  15 C15           -4.8548     0.8623     0.3671 C.ar    
  16 C16           -4.7658    -0.5075     0.1563 C.ar    
  17 C17           -3.5112    -1.0759     0.0303 C.ar    
  18 C18            2.9824    -3.0971    -1.6777 C.ar    
  19 C19            3.8971    -3.8977    -2.3358 C.ar    
  20 C20            3.6754    -4.2639    -3.6502 C.ar    
  21 C21            2.5387    -3.8299    -4.3063 C.ar    
  22 C22            1.6235    -3.0300    -3.6479 C.ar    
  23 C23            1.8431    -2.6674    -2.3321 C.ar    
  24 S24            3.2650    -2.6302    -0.0023 S.o2    
  25 O25            4.1332    -3.6120     0.5468 O.2     
  26 O26            1.9919    -2.3228     0.5488 O.2     
  27 H27            2.3577     2.6674    -0.0587 H       
  28 H28           -1.0174    -1.7837    -0.0621 H       
  29 H29            6.7033     0.7189    -0.0688 H       
  30 H30            4.5756     2.1391    -0.0761 H       
  31 H31           -3.7619     2.6757     0.6137 H       
  32 H32           -5.8195     1.3375     0.4661 H       
  33 H33           -5.6564    -1.1146     0.0882 H       
  34 H34           -3.4055    -2.1380    -0.1344 H       
  35 H35            4.7852    -4.2368    -1.8232 H       
  36 H36            4.3904    -4.8888    -4.1646 H       
  37 H37            2.3658    -4.1154    -5.3334 H       
  38 H38            0.7356    -2.6907    -4.1606 H       
  39 H39            1.1281    -2.0425    -1.8177 H       
@<TRIPOS>BOND
   1    1    2 1
   2    1    5 1
   3    2    3 2
   4    2    6 1
   5    3    4 1
   6    4    5 2
   7    4    8 1
   8    5   27 1
   9    6    7 1
  10    6   28 1
  11    7   13 ar
  12    7   17 ar
  13    8    9 1
  14    8   12 2
  15    9   10 2
  16    9   24 1
  17   10   11 1
  18   11   12 1
  19   11   29 1
  20   12   30 1
  21   13   14 ar
  22   14   15 ar
  23   14   31 1
  24   15   16 ar
  25   15   32 1
  26   16   17 ar
  27   16   33 1
  28   17   34 1
  29   18   19 ar
  30   18   24 1
  31   18   23 ar
  32   19   20 ar
  33   19   35 1
  34   20   21 ar
  35   20   36 1
  36   21   22 ar
  37   21   37 1
  38   22   23 ar
  39   22   38 1
  40   23   39 1
  41   24   25 2
  42   24   26 2

#	End of record

