#	Name: ASD01917316
#	Creating user name:	WinNT
#	Creation time:	15. 06. 2019 20:09

#	Modifying user name:	WinNT
#	Modification time:	15. 06. 2019 20:09

#	Program:	/corina/corina34_cracker 3.40 0067  02.08.2006

@<TRIPOS>MOLECULE
ASD01917316
  51   54    0    0    0
SMALL
NO_CHARGES


@<TRIPOS>ATOM
   1 C1            -0.0169     1.3917     0.0097 C.ar    
   2 C2             0.0021    -0.0041     0.0020 C.ar    
   3 C3             1.2262    -0.6608    -0.0132 C.ar    
   4 C4             2.3834     0.1000    -0.0203 C.ar    
   5 C5             2.2886     1.4831    -0.0119 C.ar    
   6 N6             1.1179     2.0810     0.0026 N.ar    
   7 C7            -1.3116     2.1086     0.0197 C.2     
   8 O8            -2.3531     1.4822     0.0212 O.2     
   9 N9            -1.3358     3.4562     0.0272 N.am    
  10 C10           -2.6174     4.1658     0.0371 C.3     
  11 C11           -3.4791     3.8101     1.2612 C.3     
  12 C12           -4.8822     4.3888     1.0684 C.3     
  13 C13           -4.8066     5.8969     0.8223 C.3     
  14 C14           -3.8877     6.1627    -0.3830 C.3     
  15 C15           -4.2788     5.1601    -1.4932 C.3     
  16 C16           -3.4652     3.8813    -1.2242 C.3     
  17 C17           -2.4636     5.7097     0.0341 C.3     
  18 N18           -3.9433     7.5551    -0.8352 N.am    
  19 C19           -5.1145     8.0866    -1.2379 C.2     
  20 O20           -6.1244     7.4109    -1.2260 O.2     
  21 C21           -5.1707     9.4948    -1.6953 C.ar    
  22 C22           -6.3844    10.0383    -2.1103 C.ar    
  23 C23           -6.4213    11.3570    -2.5349 C.ar    
  24 C24           -5.2425    12.0866    -2.5297 C.ar    
  25 C25           -4.0711    11.4815    -2.1036 C.ar    
  26 N26           -4.0654    10.2294    -1.7009 N.ar    
  27 C27            3.5462     2.3134    -0.0190 C.3     
  28 F28           -1.1525    -0.7056     0.0098 F       
  29 H29            1.2743    -1.7397    -0.0191 H       
  30 H30            3.3509    -0.3798    -0.0317 H       
  31 H31           -0.5045     3.9561     0.0259 H       
  32 H32           -3.5420     2.7265     1.3605 H       
  33 H33           -3.0299     4.2344     2.1592 H       
  34 H34           -5.3566     3.9071     0.2134 H       
  35 H35           -5.4767     4.1985     1.9620 H       
  36 H36           -5.8042     6.2826     0.6124 H       
  37 H37           -4.4015     6.3907     1.7056 H       
  38 H38           -5.3457     4.9429    -1.4430 H       
  39 H39           -4.0245     5.5670    -2.4719 H       
  40 H40           -2.8149     3.6658    -2.0720 H       
  41 H41           -4.1362     3.0416    -1.0431 H       
  42 H42           -2.2113     6.0793     1.0280 H       
  43 H43           -1.7221     6.0272    -0.6991 H       
  44 H44           -3.1371     8.0944    -0.8447 H       
  45 H45           -7.2837     9.4404    -2.1016 H       
  46 H46           -7.3472    11.8060    -2.8628 H       
  47 H47           -5.2372    13.1165    -2.8549 H       
  48 H48           -3.1510    12.0469    -2.0982 H       
  49 H49            3.8399     2.5191    -1.0483 H       
  50 H50            3.3638     3.2535     0.5016 H       
  51 H51            4.3444     1.7681     0.4846 H       
@<TRIPOS>BOND
   1    1    2 ar
   2    1    6 ar
   3    1    7 1
   4    2    3 ar
   5    2   28 1
   6    3    4 ar
   7    3   29 1
   8    4    5 ar
   9    4   30 1
  10    5    6 ar
  11    5   27 1
  12    7    8 2
  13    7    9 am
  14    9   10 1
  15    9   31 1
  16   10   11 1
  17   10   16 1
  18   10   17 1
  19   11   12 1
  20   11   32 1
  21   11   33 1
  22   12   13 1
  23   12   34 1
  24   12   35 1
  25   13   14 1
  26   13   36 1
  27   13   37 1
  28   14   15 1
  29   14   17 1
  30   14   18 1
  31   15   16 1
  32   15   38 1
  33   15   39 1
  34   16   40 1
  35   16   41 1
  36   17   42 1
  37   17   43 1
  38   18   19 am
  39   18   44 1
  40   19   20 2
  41   19   21 1
  42   21   22 ar
  43   21   26 ar
  44   22   23 ar
  45   22   45 1
  46   23   24 ar
  47   23   46 1
  48   24   25 ar
  49   24   47 1
  50   25   26 ar
  51   25   48 1
  52   27   49 1
  53   27   50 1
  54   27   51 1

#	End of record

