#	Name: ASD05313087
#	Creating user name:	WinNT
#	Creation time:	15. 06. 2019 20:58

#	Modifying user name:	WinNT
#	Modification time:	15. 06. 2019 20:58

#	Program:	/corina/corina34_cracker 3.40 0067  02.08.2006

@<TRIPOS>MOLECULE
ASD05313087
  41   44    0    0    0
SMALL
NO_CHARGES


@<TRIPOS>ATOM
   1 C1            -0.0723     0.8170     1.0241 C.2     
   2 C2             0.1139    -0.6193     0.5965 C.3     
   3 N3             0.9309     1.7308     1.0504 N.pl3   
   4 N4             1.4570    -0.7184    -0.0054 N.am    
   5 C5             2.5714    -0.0371     0.6707 C.3     
   6 C6             2.3174     1.4752     0.6638 C.3     
   7 N7            -0.9036     2.6399     1.7087 N.2     
   8 N8            -1.1566     1.4080     1.4268 N.2     
   9 C9             0.3725     2.8903     1.4954 C.2     
  10 C10            1.0648     4.1803     1.7021 C.ar    
  11 C11            0.3470     5.2854     2.1669 C.ar    
  12 C12            1.0103     6.4873     2.3554 C.ar    
  13 C13            2.3695     6.5454     2.0731 C.ar    
  14 C14            3.0177     5.4094     1.6150 C.ar    
  15 N15            2.3647     4.2779     1.4496 N.ar    
  16 F16            3.0527     7.6984     2.2433 F       
  17 F17           -0.9746     5.1836     2.4283 F       
  18 C18            1.6574    -1.4139    -1.1423 C.2     
  19 O19            2.7490    -1.4031    -1.6771 O.2     
  20 C20            0.5501    -2.1897    -1.7387 C.ar    
  21 C21            0.3184    -2.1374    -3.1157 C.ar    
  22 C22           -0.7185    -2.8652    -3.6658 C.ar    
  23 C23           -1.5262    -3.6435    -2.8566 C.ar    
  24 C24           -1.3020    -3.6989    -1.4922 C.ar    
  25 C25           -0.2659    -2.9825    -0.9300 C.ar    
  26 C26           -0.9707    -2.8108    -5.1505 C.3     
  27 F27           -2.0644    -3.6235    -5.4678 F       
  28 F28           -1.2443    -1.4921    -5.5291 F       
  29 F29            0.1623    -3.2664    -5.8330 F       
  30 Cl30           1.3309    -1.1599    -4.1322 Cl      
  31 H31            0.0449    -1.2773     1.4627 H       
  32 H32           -0.6441    -0.8897    -0.1387 H       
  33 H33            2.6433    -0.3896     1.6996 H       
  34 H34            3.5021    -0.2522     0.1456 H       
  35 H35            2.4953     1.8702    -0.3364 H       
  36 H36            2.9885     1.9602     1.3727 H       
  37 H37            0.4828     7.3592     2.7133 H       
  38 H38            4.0741     5.4516     1.3944 H       
  39 H39           -2.3359    -4.2105    -3.2916 H       
  40 H40           -1.9371    -4.3083    -0.8664 H       
  41 H41           -0.0893    -3.0312     0.1343 H       
@<TRIPOS>BOND
   1    1    2 1
   2    1    3 1
   3    1    8 2
   4    2    4 1
   5    2   31 1
   6    2   32 1
   7    3    6 1
   8    3    9 1
   9    4    5 1
  10    4   18 am
  11    5    6 1
  12    5   33 1
  13    5   34 1
  14    6   35 1
  15    6   36 1
  16    7    8 1
  17    7    9 2
  18    9   10 1
  19   10   11 ar
  20   10   15 ar
  21   11   12 ar
  22   11   17 1
  23   12   13 ar
  24   12   37 1
  25   13   14 ar
  26   13   16 1
  27   14   15 ar
  28   14   38 1
  29   18   19 2
  30   18   20 1
  31   20   21 ar
  32   20   25 ar
  33   21   22 ar
  34   21   30 1
  35   22   23 ar
  36   22   26 1
  37   23   24 ar
  38   23   39 1
  39   24   25 ar
  40   24   40 1
  41   25   41 1
  42   26   27 1
  43   26   28 1
  44   26   29 1

#	End of record

