#	Name: ASD08150914
#	Creating user name:	WinNT
#	Creation time:	15. 06. 2019 21:16

#	Modifying user name:	WinNT
#	Modification time:	15. 06. 2019 21:16

#	Program:	/corina/corina34_cracker 3.40 0067  02.08.2006

@<TRIPOS>MOLECULE
ASD08150914
  48   52    0    0    0
SMALL
NO_CHARGES


@<TRIPOS>ATOM
   1 N1            -0.2671     1.4075     0.0775 N.2     
   2 C2            -0.6696     0.2764     0.5798 C.2     
   3 N3            -0.3388     0.2094     1.9005 N.pl3   
   4 C4             0.3073     1.3761     2.2224 C.ar    
   5 N5             0.8496     1.8741     3.3287 N.ar    
   6 C6             1.4161     3.0624     3.3221 C.ar    
   7 N7             1.4763     3.8129     2.2373 N.ar    
   8 C8             0.9611     3.3987     1.0843 C.ar    
   9 C9             0.3459     2.1362     1.0411 C.ar    
  10 N10            1.0286     4.1925    -0.0472 N.pl3   
  11 C11            1.6735     5.5064     0.0171 C.3     
  12 C12            2.1559     5.9066    -1.3786 C.3     
  13 N13            0.5986     9.7957     2.1286 N.ar    
  14 N14           -0.2570    10.6560     2.5518 N.ar    
  15 C15           -1.5681    10.4804     2.4643 C.ar    
  16 C16           -2.0848     9.3453     1.9045 C.ar    
  17 C17           -1.1744     8.3816     1.4303 C.ar    
  18 C18           -1.5991     7.1826     0.8397 C.ar    
  19 C19           -0.6783     6.2804     0.3969 C.ar    
  20 C20            0.6850     6.5272     0.5189 C.ar    
  21 C21            1.1452     7.6976     1.0955 C.ar    
  22 C22            0.2114     8.6515     1.5644 C.ar    
  23 C23           -3.0708     6.8918     0.6959 C.3     
  24 C24            2.5998     7.9491     1.2209 C.ar    
  25 C25            3.1910     8.9996     0.5202 C.ar    
  26 C26            4.5485     9.2305     0.6410 C.ar    
  27 C27            5.3214     8.4199     1.4561 C.ar    
  28 C28            4.7388     7.3747     2.1539 C.ar    
  29 C29            3.3811     7.1395     2.0446 C.ar    
  30 F30            5.4980     6.5870     2.9466 F       
  31 F31            5.1225    10.2481    -0.0374 F       
  32 H32           -1.1894    -0.4951     0.0312 H       
  33 H33           -0.5261    -0.5279     2.5024 H       
  34 H34            1.8475     3.4377     4.2383 H       
  35 H35            0.6488     3.8791    -0.8830 H       
  36 H36            2.5247     5.4604     0.6964 H       
  37 H37            1.3046     5.9526    -2.0579 H       
  38 H38            2.6357     6.8841    -1.3307 H       
  39 H39            2.8709     5.1683    -1.7415 H       
  40 H40           -2.2353    11.2422     2.8396 H       
  41 H41           -3.1514     9.1933     1.8292 H       
  42 H42           -1.0128     5.3592    -0.0569 H       
  43 H43           -3.4252     7.2757    -0.2606 H       
  44 H44           -3.2341     5.8149     0.7383 H       
  45 H45           -3.6174     7.3744     1.5062 H       
  46 H46            2.5893     9.6317    -0.1161 H       
  47 H47            6.3818     8.6032     1.5475 H       
  48 H48            2.9270     6.3271     2.5925 H       
@<TRIPOS>BOND
   1    1    2 2
   2    1    9 1
   3    2    3 1
   4    2   32 1
   5    3    4 1
   6    3   33 1
   7    4    5 ar
   8    4    9 ar
   9    5    6 ar
  10    6    7 ar
  11    6   34 1
  12    7    8 ar
  13    8    9 ar
  14    8   10 1
  15   10   11 1
  16   10   35 1
  17   11   12 1
  18   11   20 1
  19   11   36 1
  20   12   37 1
  21   12   38 1
  22   12   39 1
  23   13   14 ar
  24   13   22 ar
  25   14   15 ar
  26   15   16 ar
  27   15   40 1
  28   16   17 ar
  29   16   41 1
  30   17   18 ar
  31   17   22 ar
  32   18   19 ar
  33   18   23 1
  34   19   20 ar
  35   19   42 1
  36   20   21 ar
  37   21   22 ar
  38   21   24 1
  39   23   43 1
  40   23   44 1
  41   23   45 1
  42   24   25 ar
  43   24   29 ar
  44   25   26 ar
  45   25   46 1
  46   26   27 ar
  47   26   31 1
  48   27   28 ar
  49   27   47 1
  50   28   29 ar
  51   28   30 1
  52   29   48 1

#	End of record

