#	Name: ASD04882350
#	Creating user name:	WinNT
#	Creation time:	15. 06. 2019 20:54

#	Modifying user name:	WinNT
#	Modification time:	15. 06. 2019 20:54

#	Program:	/corina/corina34_cracker 3.40 0067  02.08.2006

@<TRIPOS>MOLECULE
ASD04882350
  79   84    0    0    0
SMALL
NO_CHARGES


@<TRIPOS>ATOM
   1 N1            -0.0169     1.3967     0.0097 N.am    
   2 C2             0.1114     0.0024    -0.0346 C.ar    
   3 C3            -1.0249    -0.8075     0.0447 C.ar    
   4 C4            -0.8990    -2.1913     0.0008 C.ar    
   5 C5             0.3451    -2.7691    -0.1214 C.ar    
   6 C6             1.4856    -1.9651    -0.2017 C.ar    
   7 C7             1.3614    -0.5734    -0.1626 C.ar    
   8 N8            -2.2849    -0.2275     0.1683 N.3     
   9 C9            -3.1503    -0.6030    -0.9584 C.3     
  10 C10           -2.9072    -0.5882     1.4498 C.3     
  11 C11           -4.2519     0.1309     1.5811 C.3     
  12 N12           -5.1174    -0.2446     0.4544 N.3     
  13 C13           -4.4950     0.1161    -0.8271 C.3     
  14 C14            2.8182    -2.5844    -0.3322 C.2     
  15 O15            3.8098    -1.8841    -0.4019 O.2     
  16 C16            0.9200     2.1782    -0.5629 C.2     
  17 C17            0.7421     3.6334    -0.5936 C.2     
  18 O18            1.9137     1.6761    -1.0546 O.2     
  19 N19            2.9365    -3.9263    -0.3740 N.am    
  20 C20           -6.3811     0.3371     0.5784 C.ar    
  21 C21           -7.5120    -0.4653     0.6574 C.ar    
  22 C22           -6.5093     1.7196     0.6287 C.ar    
  23 C23           -7.7601     2.2915     0.7513 C.ar    
  24 C24           -8.8847     1.4896     0.8244 C.ar    
  25 C25           -8.7603     0.1133     0.7800 C.ar    
  26 C26           -7.3774    -1.9655     0.6091 C.3     
  27 O27           -0.3066     4.3147    -0.0874 O.3     
  28 C28            1.6116     4.5369    -1.1343 C.2     
  29 C29            1.0453     5.8068    -0.9423 C.2     
  30 C30           -0.1283     5.6255    -0.2975 C.2     
  31 C31            4.2599    -4.5412    -0.5035 C.3     
  32 C32            4.9076    -4.7190     0.8889 C.3     
  33 C33            5.6050    -6.0977     0.7732 C.3     
  34 N34            4.6528    -6.8927    -0.0438 N.3     
  35 C35            4.1336    -5.9663    -1.0732 C.3     
  36 C36            5.3234    -8.0443    -0.6619 C.3     
  37 C37            5.9136    -8.9574     0.4270 C.3     
  38 C38            4.3005    -8.8946    -1.4433 C.3     
  39 C39            4.7608   -10.3545    -1.2071 C.3     
  40 C40            5.2288   -10.3307     0.2692 C.3     
  41 H41           -0.7821     1.7996     0.4491 H       
  42 H42           -1.7788    -2.8145     0.0630 H       
  43 H43            0.4396    -3.8444    -0.1549 H       
  44 H44            2.2408     0.0504    -0.2248 H       
  45 H45           -2.6736    -0.3143    -1.8951 H       
  46 H46           -3.3120    -1.6809    -0.9493 H       
  47 H47           -3.0661    -1.6660     1.4863 H       
  48 H48           -2.2532    -0.2888     2.2688 H       
  49 H49           -4.7287    -0.1578     2.5179 H       
  50 H50           -4.0902     1.2088     1.5720 H       
  51 H51           -4.3361     1.1939    -0.8635 H       
  52 H52           -5.1490    -0.1833    -1.6460 H       
  53 H53            2.1455    -4.4849    -0.3183 H       
  54 H54           -5.6315     2.3463     0.5723 H       
  55 H55           -7.8604     3.3661     0.7904 H       
  56 H56           -9.8618     1.9394     0.9210 H       
  57 H57           -9.6404    -0.5100     0.8373 H       
  58 H58           -7.2557    -2.3522     1.6209 H       
  59 H59           -8.2726    -2.3964     0.1607 H       
  60 H60           -6.5065    -2.2330     0.0106 H       
  61 H61            2.5530     4.3170    -1.6159 H       
  62 H62            1.4695     6.7514    -1.2491 H       
  63 H63           -0.8106     6.4084    -0.0010 H       
  64 H64            4.8986    -3.9318    -1.1429 H       
  65 H65            5.6378    -3.9320     1.0780 H       
  66 H66            4.1465    -4.7360     1.6690 H       
  67 H67            6.5634    -6.0024     0.2628 H       
  68 H68            5.7353    -6.5467     1.7578 H       
  69 H69            3.0877    -6.1915    -1.2818 H       
  70 H70            4.7244    -6.0555    -1.9849 H       
  71 H71            6.1132    -7.7015    -1.3302 H       
  72 H72            6.9897    -9.0585     0.2865 H       
  73 H73            5.7024    -8.5461     1.4140 H       
  74 H74            3.2964    -8.7424    -1.0476 H       
  75 H75            4.3340    -8.6511    -2.5052 H       
  76 H76            3.9297   -11.0475    -1.3378 H       
  77 H77            5.5870   -10.6111    -1.8702 H       
  78 H78            5.9397   -11.1353     0.4570 H       
  79 H79            4.3745   -10.4105     0.9415 H       
@<TRIPOS>BOND
   1    1    2 1
   2    1   16 am
   3    1   41 1
   4    2    3 ar
   5    2    7 ar
   6    3    4 ar
   7    3    8 1
   8    4    5 ar
   9    4   42 1
  10    5    6 ar
  11    5   43 1
  12    6    7 ar
  13    6   14 1
  14    7   44 1
  15    8    9 1
  16    8   10 1
  17    9   13 1
  18    9   45 1
  19    9   46 1
  20   10   11 1
  21   10   47 1
  22   10   48 1
  23   11   12 1
  24   11   49 1
  25   11   50 1
  26   12   13 1
  27   12   20 1
  28   13   51 1
  29   13   52 1
  30   14   15 2
  31   14   19 am
  32   16   18 2
  33   16   17 1
  34   17   27 1
  35   17   28 2
  36   19   31 1
  37   19   53 1
  38   20   21 ar
  39   20   22 ar
  40   21   26 1
  41   21   25 ar
  42   22   23 ar
  43   22   54 1
  44   23   24 ar
  45   23   55 1
  46   24   25 ar
  47   24   56 1
  48   25   57 1
  49   26   58 1
  50   26   59 1
  51   26   60 1
  52   27   30 1
  53   28   29 1
  54   28   61 1
  55   29   30 2
  56   29   62 1
  57   30   63 1
  58   31   32 1
  59   31   35 1
  60   31   64 1
  61   32   33 1
  62   32   65 1
  63   32   66 1
  64   33   34 1
  65   33   67 1
  66   33   68 1
  67   34   35 1
  68   34   36 1
  69   35   69 1
  70   35   70 1
  71   36   37 1
  72   36   38 1
  73   36   71 1
  74   37   40 1
  75   37   72 1
  76   37   73 1
  77   38   39 1
  78   38   74 1
  79   38   75 1
  80   39   40 1
  81   39   76 1
  82   39   77 1
  83   40   78 1
  84   40   79 1

#	End of record

