#	Name: ASD03240557
#	Creating user name:	WinNT
#	Creation time:	15. 06. 2019 20:35

#	Modifying user name:	WinNT
#	Modification time:	15. 06. 2019 20:35

#	Program:	/corina/corina34_cracker 3.40 0067  02.08.2006

@<TRIPOS>MOLECULE
ASD03240557
  61   67    0    0    0
SMALL
NO_CHARGES


@<TRIPOS>ATOM
   1 C1            -0.0166     1.3754     0.0096 C.ar    
   2 C2             0.0021    -0.0041     0.0020 C.ar    
   3 N3             1.1422    -0.6683    -0.0058 N.ar    
   4 C4             2.3145    -0.0481    -0.0057 C.ar    
   5 C5             2.3702     1.3442    -0.0124 C.ar    
   6 C6             1.1861     2.0698     0.0018 C.ar    
   7 N7             3.4821    -0.8058     0.0220 N.pl3   
   8 C8             4.3592    -0.7192     1.0997 C.ar    
   9 C9             4.9952     0.4893     1.4036 C.ar    
  10 C10            4.7636     1.6836     0.5619 C.2     
  11 N11            3.5939     2.0276    -0.0512 N.pl3   
  12 C12            4.6053    -1.8388     1.8832 C.ar    
  13 C13            5.4651    -1.7533     2.9615 C.ar    
  14 C14            6.0857    -0.5551     3.2704 C.ar    
  15 C15            5.8561     0.5658     2.4981 C.ar    
  16 N16            5.6751     2.5945     0.2847 N.2     
  17 C17            5.1451     3.5401    -0.5060 C.2     
  18 C18            3.8227     3.2044    -0.7373 C.2     
  19 C19            2.8502     3.9545    -1.5550 C.ar    
  20 C20            2.7514     5.3427    -1.4306 C.ar    
  21 C21            2.0277     3.2808    -2.4615 C.ar    
  22 C22            1.1209     3.9885    -3.2224 C.ar    
  23 C23            1.0249     5.3626    -3.0901 C.ar    
  24 C24            1.8400     6.0372    -2.1982 C.ar    
  25 C25            5.8497     4.7303    -1.0369 C.ar    
  26 C26            0.0319     6.1288    -3.9256 C.3     
  27 N27           -1.0471     5.2808    -4.4498 N.3     
  28 C28           -0.4688     7.4201    -3.2574 C.3     
  29 C29           -0.3818     8.0784    -4.6444 C.3     
  30 C30            0.6850     7.0241    -4.9918 C.3     
  31 C31            6.8251     5.3789    -0.2695 C.ar    
  32 C32            7.4550     6.4844    -0.8064 C.ar    
  33 C33            7.1028     6.9146    -2.0825 C.ar    
  34 N34            6.1756     6.2784    -2.7826 N.ar    
  35 C35            5.5554     5.2166    -2.3088 C.ar    
  36 N36            7.7322     8.0268    -2.6292 N.pl3   
  37 H37           -0.9556     1.9091     0.0170 H       
  38 H38           -0.9306    -0.5486     0.0028 H       
  39 H39            1.2002     3.1497     0.0064 H       
  40 H40            3.6863    -1.4003    -0.7167 H       
  41 H41            4.1241    -2.7771     1.6498 H       
  42 H42            5.6540    -2.6270     3.5676 H       
  43 H43            6.7520    -0.4971     4.1183 H       
  44 H44            6.3416     1.4994     2.7410 H       
  45 H45            3.3868     5.8704    -0.7349 H       
  46 H46            2.1021     2.2084    -2.5662 H       
  47 H47            0.4845     3.4690    -3.9235 H       
  48 H48            1.7593     7.1097    -2.0999 H       
  49 H49           -0.6743     4.4587    -4.9006 H       
  50 H50           -1.6967     5.0297    -3.7197 H       
  51 H51           -1.4858     7.3464    -2.8721 H       
  52 H52            0.2305     7.8360    -2.5321 H       
  53 H53           -1.2955     7.9829    -5.2312 H       
  54 H54            0.0024     9.0982    -4.6205 H       
  55 H55            1.7003     7.3312    -4.7410 H       
  56 H56            0.5983     6.6328    -6.0055 H       
  57 H57            7.0784     5.0235     0.7184 H       
  58 H58            8.2118     7.0093    -0.2425 H       
  59 H59            4.8046     4.7239    -2.9089 H       
  60 H60            8.4118     8.4976    -2.1220 H       
  61 H61            7.4917     8.3321    -3.5179 H       
@<TRIPOS>BOND
   1    1    2 ar
   2    1    6 ar
   3    1   37 1
   4    2    3 ar
   5    2   38 1
   6    3    4 ar
   7    4    5 ar
   8    4    7 1
   9    5    6 ar
  10    5   11 1
  11    6   39 1
  12    7    8 1
  13    7   40 1
  14    8    9 ar
  15    8   12 ar
  16    9   10 1
  17    9   15 ar
  18   10   11 1
  19   10   16 2
  20   11   18 1
  21   12   13 ar
  22   12   41 1
  23   13   14 ar
  24   13   42 1
  25   14   15 ar
  26   14   43 1
  27   15   44 1
  28   16   17 1
  29   17   18 2
  30   17   25 1
  31   18   19 1
  32   19   20 ar
  33   19   21 ar
  34   20   24 ar
  35   20   45 1
  36   21   22 ar
  37   21   46 1
  38   22   23 ar
  39   22   47 1
  40   23   24 ar
  41   23   26 1
  42   24   48 1
  43   25   31 ar
  44   25   35 ar
  45   26   27 1
  46   26   28 1
  47   26   30 1
  48   27   49 1
  49   27   50 1
  50   28   29 1
  51   28   51 1
  52   28   52 1
  53   29   30 1
  54   29   53 1
  55   29   54 1
  56   30   55 1
  57   30   56 1
  58   31   32 ar
  59   31   57 1
  60   32   33 ar
  61   32   58 1
  62   33   34 ar
  63   33   36 1
  64   34   35 ar
  65   35   59 1
  66   36   60 1
  67   36   61 1

#	End of record

