#	Name: ASD07300642
#	Creating user name:	WinNT
#	Creation time:	15. 06. 2019 21:10

#	Modifying user name:	WinNT
#	Modification time:	15. 06. 2019 21:10

#	Program:	/corina/corina34_cracker 3.40 0067  02.08.2006

@<TRIPOS>MOLECULE
ASD07300642
  23   24    0    0    0
SMALL
NO_CHARGES


@<TRIPOS>ATOM
   1 C1            -0.0171     1.4065     0.0098 C.2     
   2 C2             0.0021    -0.0041     0.0020 C.2     
   3 N3             1.1785     2.0841     0.0020 N.pl3   
   4 N4             1.1511    -0.6382    -0.0124 N.2     
   5 C5             2.3110     0.0245    -0.0199 C.2     
   6 C6             2.3474     1.3731    -0.0126 C.2     
   7 N7            -0.9927     2.2992     0.0291 N.2     
   8 C8            -0.4649     3.5240     0.0277 C.2     
   9 C9             0.8859     3.4125     0.0119 C.2     
  10 C10           -1.2405     4.8159     0.0457 C.3     
  11 C11           -2.1401     4.8880    -1.1897 C.3     
  12 C12           -2.1025     4.8757     1.3084 C.3     
  13 Cl13          -1.4868    -0.8967     0.0120 Cl      
  14 Br14           2.1302     4.8364     0.0083 Br      
  15 H15            3.2377    -0.5302    -0.0313 H       
  16 H16            3.2959     1.8896    -0.0192 H       
  17 H17           -0.5466     5.6565     0.0394 H       
  18 H18           -2.8340     4.0474    -1.1834 H       
  19 H19           -2.7011     5.8224    -1.1767 H       
  20 H20           -1.5260     4.8454    -2.0893 H       
  21 H21           -1.4616     4.8243     2.1886 H       
  22 H22           -2.6635     5.8101     1.3215 H       
  23 H23           -2.7964     4.0351     1.3147 H       
@<TRIPOS>BOND
   1    1    2 1
   2    1    3 1
   3    1    7 2
   4    2    4 2
   5    2   13 1
   6    3    6 1
   7    3    9 1
   8    4    5 1
   9    5    6 2
  10    5   15 1
  11    6   16 1
  12    7    8 1
  13    8    9 2
  14    8   10 1
  15    9   14 1
  16   10   11 1
  17   10   12 1
  18   10   17 1
  19   11   18 1
  20   11   19 1
  21   11   20 1
  22   12   21 1
  23   12   22 1
  24   12   23 1

#	End of record

