#	Name: ASD01420015
#	Creating user name:	WinNT
#	Creation time:	15. 06. 2019 19:20

#	Modifying user name:	WinNT
#	Modification time:	15. 06. 2019 19:20

#	Program:	/corina/corina34_cracker 3.40 0067  02.08.2006

@<TRIPOS>MOLECULE
ASD01420015
  54   56    0    0    0
SMALL
NO_CHARGES


@<TRIPOS>ATOM
   1 C1            -0.0184     1.5028     0.0103 C.2     
   2 C2             0.1307     0.0034    -0.0146 C.3     
   3 C3             1.1715     2.3573     0.0089 C.ar    
   4 C4             1.0383     3.7546    -0.0847 C.ar    
   5 C5             2.1702     4.5507    -0.0850 C.ar    
   6 C6             3.4265     3.9682     0.0068 C.ar    
   7 C7             3.5552     2.5849     0.0989 C.ar    
   8 C8             2.4480     1.7872     0.1067 C.ar    
   9 C9             4.9253     1.9651     0.1971 C.3     
  10 C10            5.0363     1.1774     1.5040 C.3     
  11 C11            5.1443     1.0215    -0.9872 C.3     
  12 O12            4.5348     4.7506     0.0063 O.3     
  13 C13            4.3327     6.1618    -0.0913 C.3     
  14 C14            5.6668     6.8626    -0.0767 C.ar    
  15 C15            6.3311     7.1090    -1.2636 C.ar    
  16 C16            7.5549     7.7517    -1.2503 C.ar    
  17 C17            8.1141     8.1485    -0.0499 C.ar    
  18 C18            7.4494     7.9029     1.1369 C.ar    
  19 C19            6.2236     7.2640     1.1232 C.ar    
  20 O20           -0.1919     4.3180    -0.1747 O.3     
  21 C21           -0.2478     5.7429    -0.2666 C.3     
  22 C22           -1.6857     6.1845    -0.3581 C.ar    
  23 C23           -2.3981     6.4620     0.7936 C.ar    
  24 C24           -3.7172     6.8669     0.7097 C.ar    
  25 C25           -4.3236     6.9949    -0.5259 C.ar    
  26 C26           -3.6110     6.7183    -1.6777 C.ar    
  27 C27           -2.2906     6.3175    -1.5939 C.ar    
  28 O28           -1.1240     2.0023     0.0264 O.2     
  29 H29            1.1837    -0.2553    -0.1257 H       
  30 H30           -0.2498    -0.4151     0.9172 H       
  31 H31           -0.4340    -0.4040    -0.8532 H       
  32 H32            2.0761     5.6242    -0.1570 H       
  33 H33            2.5557     0.7154     0.1837 H       
  34 H34            5.6812     2.7502     0.1807 H       
  35 H35            6.0273     0.7291     1.5750 H       
  36 H36            4.8803     1.8496     2.3478 H       
  37 H37            4.2804     0.3923     1.5204 H       
  38 H38            5.0652     1.5827    -1.9183 H       
  39 H39            6.1353     0.5733    -0.9162 H       
  40 H40            4.3884     0.2364    -0.9709 H       
  41 H41            3.8121     6.3909    -1.0211 H       
  42 H42            3.7341     6.5024     0.7536 H       
  43 H43            5.8942     6.7990    -2.2014 H       
  44 H44            8.0742     7.9435    -2.1775 H       
  45 H45            9.0705     8.6500    -0.0394 H       
  46 H46            7.8864     8.2126     2.0747 H       
  47 H47            5.7025     7.0755     2.0502 H       
  48 H48            0.2117     6.1825     0.6187 H       
  49 H49            0.2903     6.0710    -1.1560 H       
  50 H50           -1.9243     6.3620     1.7589 H       
  51 H51           -4.2740     7.0830     1.6095 H       
  52 H52           -5.3544     7.3106    -0.5915 H       
  53 H53           -4.0849     6.8179    -2.6430 H       
  54 H54           -1.7327     6.1049    -2.4939 H       
@<TRIPOS>BOND
   1    1    2 1
   2    1    3 1
   3    1   28 2
   4    2   29 1
   5    2   30 1
   6    2   31 1
   7    3    4 ar
   8    3    8 ar
   9    4    5 ar
  10    4   20 1
  11    5    6 ar
  12    5   32 1
  13    6    7 ar
  14    6   12 1
  15    7    8 ar
  16    7    9 1
  17    8   33 1
  18    9   10 1
  19    9   11 1
  20    9   34 1
  21   10   35 1
  22   10   36 1
  23   10   37 1
  24   11   38 1
  25   11   39 1
  26   11   40 1
  27   12   13 1
  28   13   14 1
  29   13   41 1
  30   13   42 1
  31   14   15 ar
  32   14   19 ar
  33   15   16 ar
  34   15   43 1
  35   16   17 ar
  36   16   44 1
  37   17   18 ar
  38   17   45 1
  39   18   19 ar
  40   18   46 1
  41   19   47 1
  42   20   21 1
  43   21   22 1
  44   21   48 1
  45   21   49 1
  46   22   23 ar
  47   22   27 ar
  48   23   24 ar
  49   23   50 1
  50   24   25 ar
  51   24   51 1
  52   25   26 ar
  53   25   52 1
  54   26   27 ar
  55   26   53 1
  56   27   54 1

#	End of record

