#	Name: ASD03930067
#	Creating user name:	WinNT
#	Creation time:	15. 06. 2019 20:47

#	Modifying user name:	WinNT
#	Modification time:	15. 06. 2019 20:47

#	Program:	/corina/corina34_cracker 3.40 0067  02.08.2006

@<TRIPOS>MOLECULE
ASD03930067
  25   27    0    0    0
SMALL
NO_CHARGES


@<TRIPOS>ATOM
   1 C1            -0.0167     1.3770     0.0096 C.ar    
   2 C2             0.0021    -0.0041     0.0020 C.ar    
   3 C3            -1.1757    -0.7393    -0.0060 C.ar    
   4 C4            -2.3864    -0.1103    -0.0066 C.ar    
   5 C5            -2.4149     1.3019     0.0325 C.ar    
   6 C6            -1.2493     2.0484     0.0308 C.ar    
   7 C7            -3.6665    -0.8944    -0.0758 C.3     
   8 N8            -4.7791    -0.2353     0.6141 N.am    
   9 S9            -5.2034     1.3178     0.1602 S.o2    
  10 C10           -3.6228     2.1398     0.1012 C.2     
  11 S11           -1.6509     3.7597     0.0483 S.3     
  12 C12           -3.3737     3.4281     0.1046 C.2     
  13 O13           -5.6891     1.2469    -1.1733 O.2     
  14 O14           -5.9314     1.8861     1.2401 O.2     
  15 C15           -5.5072    -0.9249     1.6822 C.3     
  16 O16            1.1474     2.0792     0.0023 O.3     
  17 H17            0.9501    -0.5215     0.0020 H       
  18 H18           -1.1331    -1.8184    -0.0122 H       
  19 H19           -3.9362    -1.0343    -1.1226 H       
  20 H20           -3.5036    -1.8729     0.3760 H       
  21 H21           -4.1363     4.1920     0.1397 H       
  22 H22           -5.0320    -0.7145     2.6403 H       
  23 H23           -6.5390    -0.5742     1.7036 H       
  24 H24           -5.4923    -1.9990     1.4972 H       
  25 H25            1.4758     2.2871    -0.8832 H       
@<TRIPOS>BOND
   1    1    2 ar
   2    1   16 1
   3    1    6 ar
   4    2    3 ar
   5    2   17 1
   6    3    4 ar
   7    3   18 1
   8    4    5 ar
   9    4    7 1
  10    5    6 ar
  11    5   10 1
  12    6   11 1
  13    7    8 1
  14    7   19 1
  15    7   20 1
  16    8    9 am
  17    8   15 1
  18    9   10 1
  19    9   13 2
  20    9   14 2
  21   10   12 2
  22   11   12 1
  23   12   21 1
  24   15   22 1
  25   15   23 1
  26   15   24 1
  27   16   25 1

#	End of record

