#	Name: ASD02038818
#	Creating user name:	WinNT
#	Creation time:	15. 06. 2019 20:17

#	Modifying user name:	WinNT
#	Modification time:	15. 06. 2019 20:17

#	Program:	/corina/corina34_cracker 3.40 0067  02.08.2006

@<TRIPOS>MOLECULE
ASD02038818
  56   59    0    0    0
SMALL
NO_CHARGES


@<TRIPOS>ATOM
   1 C1            -1.2823    -0.8513     0.4656 C.2     
   2 C2            -0.0607    -0.0344     0.3017 C.2     
   3 N3             1.1368    -0.6350     0.1536 N.am    
   4 C4             1.2419    -2.0930     0.2502 C.3     
   5 C5             1.2142    -2.6913    -1.1327 C.ar    
   6 C6             2.3332     0.1703    -0.1038 C.3     
   7 O7            -0.1364     1.1788     0.3005 O.2     
   8 N8            -1.3377    -2.1953     0.4968 N.2     
   9 C9            -2.5931    -2.5288     0.6565 C.2     
  10 N10           -3.3112    -1.3925     0.7236 N.pl3   
  11 N11           -2.5060    -0.3927     0.6122 N.2     
  12 C12            2.3970    -3.0120    -1.7679 C.ar    
  13 C13            2.1213     1.0144    -1.3643 C.3     
  14 C14            3.3440     1.9098    -1.5810 C.3     
  15 O15            3.5436     2.7286    -0.4269 O.3     
  16 C16            3.7937     1.9944     0.7733 C.3     
  17 C17            2.5891     1.1024     1.0845 C.3     
  18 C18           -4.7630    -1.3066     0.8997 C.3     
  19 C19            0.0033    -2.9229    -1.7598 C.ar    
  20 C20           -0.0309    -3.4725    -3.0284 C.ar    
  21 C21            1.1471    -3.7930    -3.6769 C.ar    
  22 C22            2.3711    -3.5655    -3.0459 C.ar    
  23 C23            3.6395    -3.9069    -3.7356 C.ar    
  24 C24            3.8061    -5.1651    -4.3103 C.ar    
  25 C25            4.9884    -5.4775    -4.9507 C.ar    
  26 C26            6.0065    -4.5442    -5.0224 C.ar    
  27 C27            5.8465    -3.2933    -4.4535 C.ar    
  28 C28            4.6666    -2.9683    -3.8158 C.ar    
  29 C29            5.1703    -6.8381    -5.5725 C.3     
  30 O30            4.7217    -6.8059    -6.9288 O.3     
  31 F31            1.1136    -4.3303    -4.9161 F       
  32 H32            2.1779    -2.3580     0.7420 H       
  33 H33            0.4043    -2.4800     0.8304 H       
  34 H34            3.1915    -0.4867    -0.2450 H       
  35 H35           -2.9825    -3.5340     0.7221 H       
  36 H36            3.3412    -2.8338    -1.2748 H       
  37 H37            1.9934     0.3580    -2.2251 H       
  38 H38            1.2330     1.6342    -1.2426 H       
  39 H39            4.2251     1.2889    -1.7430 H       
  40 H40            3.1806     2.5437    -2.4525 H       
  41 H41            4.6807     1.3746     0.6421 H       
  42 H42            3.9542     2.6891     1.5977 H       
  43 H43            1.7102     1.7239     1.2557 H       
  44 H44            2.7957     0.5088     1.9751 H       
  45 H45           -4.9983    -1.2667     1.9633 H       
  46 H46           -5.1357    -0.4063     0.4111 H       
  47 H47           -5.2353    -2.1829     0.4557 H       
  48 H48           -0.9193    -2.6739    -1.2566 H       
  49 H49           -0.9792    -3.6518    -3.5130 H       
  50 H50            3.0119    -5.8948    -4.2546 H       
  51 H51            6.9300    -4.7929    -5.5241 H       
  52 H52            6.6448    -2.5683    -4.5124 H       
  53 H53            4.5426    -1.9914    -3.3723 H       
  54 H54            6.2250    -7.1121    -5.5450 H       
  55 H55            4.5894    -7.5729    -5.0150 H       
  56 H56            4.8094    -7.6501    -7.3923 H       
@<TRIPOS>BOND
   1    1    2 1
   2    1    8 1
   3    1   11 2
   4    2    3 am
   5    2    7 2
   6    3    4 1
   7    3    6 1
   8    4    5 1
   9    4   32 1
  10    4   33 1
  11    5   12 ar
  12    5   19 ar
  13    6   13 1
  14    6   17 1
  15    6   34 1
  16    8    9 2
  17    9   10 1
  18    9   35 1
  19   10   11 1
  20   10   18 1
  21   12   22 ar
  22   12   36 1
  23   13   14 1
  24   13   37 1
  25   13   38 1
  26   14   15 1
  27   14   39 1
  28   14   40 1
  29   15   16 1
  30   16   17 1
  31   16   41 1
  32   16   42 1
  33   17   43 1
  34   17   44 1
  35   18   45 1
  36   18   46 1
  37   18   47 1
  38   19   20 ar
  39   19   48 1
  40   20   21 ar
  41   20   49 1
  42   21   22 ar
  43   21   31 1
  44   22   23 1
  45   23   24 ar
  46   23   28 ar
  47   24   25 ar
  48   24   50 1
  49   25   26 ar
  50   25   29 1
  51   26   27 ar
  52   26   51 1
  53   27   28 ar
  54   27   52 1
  55   28   53 1
  56   29   30 1
  57   29   54 1
  58   29   55 1
  59   30   56 1

#	End of record

