#	Name: ASD01940532
#	Creating user name:	WinNT
#	Creation time:	15. 06. 2019 20:12

#	Modifying user name:	WinNT
#	Modification time:	15. 06. 2019 20:12

#	Program:	/corina/corina34_cracker 3.40 0067  02.08.2006

@<TRIPOS>MOLECULE
ASD01940532
 109  115    0    0    0
SMALL
NO_CHARGES


@<TRIPOS>ATOM
   1 N1           -18.6882     7.7940     7.6874 N.ar    
   2 C2           -19.5173     7.1547     8.5061 C.ar    
   3 N3           -19.2590     5.9012     8.8678 N.ar    
   4 C4           -18.1733     5.2885     8.4111 C.ar    
   5 N5           -17.3445     5.9267     7.5931 N.ar    
   6 C6           -17.6014     7.1799     7.2306 C.ar    
   7 N7           -20.6457     7.7916     8.9812 N.3     
   8 C8           -21.4170     6.9065     9.8661 C.3     
   9 C9           -22.6245     7.6702    10.4163 C.3     
  10 O10          -23.4082     8.1624     9.3259 O.3     
  11 C11          -22.6883     9.0283     8.4443 C.3     
  12 C12          -21.4815     8.2784     7.8741 C.3     
  13 N13          -16.7401     7.8428     6.3801 N.3     
  14 C14          -15.5654     7.0158     6.0706 C.3     
  15 C15          -14.6769     7.7523     5.0653 C.3     
  16 N16          -14.2719     9.0472     5.6300 N.3     
  17 C17          -15.4466     9.8741     5.9395 C.3     
  18 C18          -16.3351     9.1376     6.9449 C.3     
  19 N19          -17.9039     3.9788     8.7899 N.pl3   
  20 C20          -17.9428     3.4781    10.0593 C.2     
  21 N21          -17.6356     2.2149    10.0495 N.2     
  22 C22          -17.5516     2.9365     7.9497 C.ar    
  23 C23          -17.3596     2.8242     6.5805 C.ar    
  24 C24          -17.3780     1.8146     8.7768 C.ar    
  25 C25          -17.0095     0.5923     8.2090 C.ar    
  26 C26          -16.8152     0.5011     6.8496 C.ar    
  27 C27          -17.0018     1.6092     6.0354 C.ar    
  28 C28          -18.2909     4.2731    11.2913 C.3     
  29 C29          -13.3552     9.7528     4.7247 C.3     
  30 C30          -13.0762    11.1541     5.2718 C.3     
  31 O31          -12.4249    11.0496     6.5394 O.3     
  32 C32          -12.1179    12.3091     7.1407 C.3     
  33 C33          -11.4266    12.0770     8.4858 C.3     
  34 O34          -10.1640    11.4436     8.2694 O.3     
  35 C35           -9.4326    11.1806     9.4686 C.3     
  36 C36           -8.1052    10.5050     9.1186 C.3     
  37 O37           -7.2920    11.4115     8.3709 O.3     
  38 C38           -6.0226    10.8761     7.9916 C.3     
  39 C39           -5.2415    11.9272     7.2005 C.3     
  40 O40           -4.9448    13.0384     8.0487 O.3     
  41 N41           -4.2197    14.0733     7.4097 N.pl3   
  42 C42           -3.8610    15.2261     8.1275 C.2     
  43 C43           -4.2044    15.3464     9.4144 C.2     
  44 C44           -3.1040    16.3067     7.4603 C.ar    
  45 C45           -3.5140    16.7837     6.2152 C.ar    
  46 C46           -2.8053    17.7925     5.5957 C.ar    
  47 C47           -1.6852    18.3360     6.2054 C.ar    
  48 C48           -1.2674    17.8707     7.4417 C.ar    
  49 C49           -1.9748    16.8600     8.0785 C.ar    
  50 N50           -1.5593    16.3927     9.3281 N.pl3   
  51 C51           -0.7730    15.2395     9.4173 C.ar    
  52 C52           -0.4750    14.6932    10.6618 C.ar    
  53 C53           -0.2927    14.6341     8.2641 C.ar    
  54 C54            0.4840    13.4949     8.3552 C.ar    
  55 C55            0.7834    12.9565     9.5933 C.ar    
  56 C56            0.3026    13.5534    10.7455 C.ar    
  57 F57           -0.9977    19.3235     5.5911 F       
  58 F58           -0.1747    18.4044     8.0302 F       
  59 F59           -0.9445    15.2761    11.7866 F       
  60 I60            1.9603    11.2283     9.7245 I       
  61 O61           -3.7016    16.3663    10.1597 O.3     
  62 F62          -17.6175     3.7403    12.3958 F       
  63 F63          -17.9074     5.6062    11.1098 F       
  64 H64          -21.7609     6.0388     9.3031 H       
  65 H65          -20.7864     6.5785    10.6924 H       
  66 H66          -23.2306     7.0013    11.0274 H       
  67 H67          -22.2799     8.5070    11.0238 H       
  68 H68          -23.3405     9.3417     7.6291 H       
  69 H69          -22.3455     9.9046     8.9944 H       
  70 H70          -20.8979     8.9518     7.2463 H       
  71 H71          -21.8263     7.4326     7.2793 H       
  72 H72          -15.0019     6.8279     6.9845 H       
  73 H73          -15.8907     6.0678     5.6422 H       
  74 H74          -13.7905     7.1535     4.8563 H       
  75 H75          -15.2317     7.9161     4.1414 H       
  76 H76          -15.1213    10.8221     6.3680 H       
  77 H77          -16.0101    10.0620     5.0256 H       
  78 H78          -17.2215     9.7365     7.1538 H       
  79 H79          -15.7804     8.9738     7.8687 H       
  80 H80          -17.4904     3.6861     5.9430 H       
  81 H81          -16.8773    -0.2780     8.8348 H       
  82 H82          -16.5300    -0.4439     6.4113 H       
  83 H83          -16.8526     1.5227     4.9692 H       
  84 H84          -19.3661     4.2245    11.4632 H       
  85 H85          -12.4194     9.1986     4.6508 H       
  86 H86          -13.8094     9.8321     3.7370 H       
  87 H87          -12.4336    11.6943     4.5766 H       
  88 H88          -14.0169    11.6919     5.3899 H       
  89 H89          -11.4554    12.8732     6.4843 H       
  90 H90          -13.0386    12.8709     7.2976 H       
  91 H91          -11.2723    13.0337     8.9848 H       
  92 H92          -12.0513    11.4382     9.1100 H       
  93 H93           -9.2370    12.1187     9.9880 H       
  94 H94          -10.0161    10.5232    10.1132 H       
  95 H95           -7.5875    10.2243    10.0358 H       
  96 H96           -8.2976     9.6131     8.5224 H       
  97 H97           -5.4617    10.6030     8.8854 H       
  98 H98           -6.1718     9.9918     7.3719 H       
  99 H99           -4.3119    11.4906     6.8354 H       
 100 H100          -5.8408    12.2653     6.3551 H       
 101 H101          -3.9707    13.9861     6.4763 H       
 102 H102          -4.8810    14.6333     9.8617 H       
 103 H103          -4.3858    16.3633     5.7360 H       
 104 H104          -3.1244    18.1601     4.6316 H       
 105 H105          -1.8161    16.8680    10.1337 H       
 106 H106          -0.5262    15.0530     7.2964 H       
 107 H107           0.8576    13.0239     7.4579 H       
 108 H108           0.5350    13.1284    11.7108 H       
 109 H109          -3.9460    16.3280    11.0945 H       
@<TRIPOS>BOND
   1    1    2 ar
   2    1    6 ar
   3    2    3 ar
   4    2    7 1
   5    3    4 ar
   6    4    5 ar
   7    4   19 1
   8    5    6 ar
   9    6   13 1
  10    7    8 1
  11    7   12 1
  12    8    9 1
  13    8   64 1
  14    8   65 1
  15    9   10 1
  16    9   66 1
  17    9   67 1
  18   10   11 1
  19   11   12 1
  20   11   68 1
  21   11   69 1
  22   12   70 1
  23   12   71 1
  24   13   14 1
  25   13   18 1
  26   14   15 1
  27   14   72 1
  28   14   73 1
  29   15   16 1
  30   15   74 1
  31   15   75 1
  32   16   17 1
  33   16   29 1
  34   17   18 1
  35   17   76 1
  36   17   77 1
  37   18   78 1
  38   18   79 1
  39   19   20 1
  40   19   22 1
  41   20   21 2
  42   20   28 1
  43   21   24 1
  44   22   24 ar
  45   22   23 ar
  46   23   27 ar
  47   23   80 1
  48   24   25 ar
  49   25   26 ar
  50   25   81 1
  51   26   27 ar
  52   26   82 1
  53   27   83 1
  54   28   62 1
  55   28   63 1
  56   28   84 1
  57   29   30 1
  58   29   85 1
  59   29   86 1
  60   30   31 1
  61   30   87 1
  62   30   88 1
  63   31   32 1
  64   32   33 1
  65   32   89 1
  66   32   90 1
  67   33   34 1
  68   33   91 1
  69   33   92 1
  70   34   35 1
  71   35   36 1
  72   35   93 1
  73   35   94 1
  74   36   37 1
  75   36   95 1
  76   36   96 1
  77   37   38 1
  78   38   39 1
  79   38   97 1
  80   38   98 1
  81   39   40 1
  82   39   99 1
  83   39  100 1
  84   40   41 1
  85   41   42 1
  86   41  101 1
  87   42   43 2
  88   42   44 1
  89   43   61 1
  90   43  102 1
  91   44   45 ar
  92   44   49 ar
  93   45   46 ar
  94   45  103 1
  95   46   47 ar
  96   46  104 1
  97   47   48 ar
  98   47   57 1
  99   48   49 ar
 100   48   58 1
 101   49   50 1
 102   50   51 1
 103   50  105 1
 104   51   53 ar
 105   51   52 ar
 106   52   56 ar
 107   52   59 1
 108   53   54 ar
 109   53  106 1
 110   54   55 ar
 111   54  107 1
 112   55   56 ar
 113   55   60 1
 114   56  108 1
 115   61  109 1

#	End of record

