#	Name: ASD03330088
#	Creating user name:	WinNT
#	Creation time:	15. 06. 2019 20:36

#	Modifying user name:	WinNT
#	Modification time:	15. 06. 2019 20:36

#	Program:	/corina/corina34_cracker 3.40 0067  02.08.2006

@<TRIPOS>MOLECULE
ASD03330088
  74   78    0    0    0
SMALL
NO_CHARGES


@<TRIPOS>ATOM
   1 C1             1.6789     0.3799    -1.0459 C.2     
   2 C2             1.3100    -0.6954    -0.2946 C.2     
   3 C3             3.0267     0.6717    -1.0118 C.2     
   4 C4             3.7698    -0.1760    -0.2224 C.2     
   5 S5             2.7178    -1.3848     0.5006 S.3     
   6 C6             5.2275    -0.0840    -0.0140 C.ar    
   7 C7             5.7553    -0.1149     1.2805 C.ar    
   8 C8             6.0870     0.0284    -1.1093 C.ar    
   9 C9             7.4487     0.1141    -0.9079 C.ar    
  10 C10            7.9652     0.0883     0.3769 C.ar    
  11 C11            7.1199    -0.0283     1.4677 C.ar    
  12 C12            3.6241     1.8022    -1.7623 C.ar    
  13 C13            3.4178     1.9152    -3.1366 C.ar    
  14 C14            4.3887     2.7578    -1.0943 C.ar    
  15 C15            4.9431     3.8082    -1.7954 C.ar    
  16 C16            4.7401     3.9149    -3.1645 C.ar    
  17 C17            3.9750     2.9681    -3.8317 C.ar    
  18 C18           -0.0590    -1.2022    -0.1679 C.2     
  19 O19           -0.9859    -0.4247    -0.0347 O.2     
  20 N20           -0.2919    -2.5294    -0.1989 N.am    
  21 C21           -1.6660    -3.0490    -0.1758 C.3     
  22 C22            0.8233    -3.4838    -0.2626 C.3     
  23 C23            0.6007    -4.4236    -1.4517 C.3     
  24 C24           -0.7785    -5.0757    -1.3301 C.3     
  25 C25           -1.8556    -3.9947    -1.3661 C.3     
  26 C26           -0.9872    -6.0269    -2.4803 C.ar    
  27 Cl27           4.6968    -0.2610     2.6487 Cl      
  28 C28           -0.8625    -5.8338    -0.0304 C.2     
  29 N29            0.0869    -6.7366     0.2858 N.am    
  30 O30           -1.7846    -5.6316     0.7310 O.2     
  31 C31           -1.3704    -7.7716    -4.5904 C.ar    
  32 C32           -2.3901    -7.5484    -3.6842 C.ar    
  33 C33           -2.1986    -6.6759    -2.6293 C.ar    
  34 C34           -0.1608    -7.1185    -4.4444 C.ar    
  35 C35            0.0307    -6.2460    -3.3895 C.ar    
  36 O36            5.2874     4.9515    -3.8524 O.3     
  37 C37            5.0387     5.0002    -5.2587 C.3     
  38 C38            5.7298     6.2272    -5.8567 C.3     
  39 C39            5.4635     6.2794    -7.3624 C.3     
  40 S40            6.2829     7.7342    -8.0714 S.3     
  41 Cl41           9.6807     0.1955     0.6207 Cl      
  42 C42            5.8586     7.6242    -9.8316 C.3     
  43 H43            0.9726     0.9555    -1.6258 H       
  44 H44            5.6861     0.0480    -2.1119 H       
  45 H45            8.1139     0.2011    -1.7542 H       
  46 H46            7.5292    -0.0478     2.4670 H       
  47 H47            2.8226     1.1790    -3.6562 H       
  48 H48            4.5464     2.6758    -0.0290 H       
  49 H49            5.5355     4.5488    -1.2786 H       
  50 H50            3.8190     3.0540    -4.8969 H       
  51 H51           -1.8354    -3.5929     0.7535 H       
  52 H52           -2.3710    -2.2212    -0.2509 H       
  53 H53            1.7603    -2.9427    -0.3950 H       
  54 H54            0.8611    -4.0638     0.6595 H       
  55 H55            0.6536    -3.8547    -2.3800 H       
  56 H56            1.3696    -5.1963    -1.4537 H       
  57 H57           -2.8396    -4.4593    -1.3031 H       
  58 H58           -1.7767    -3.4333    -2.2971 H       
  59 H59            0.8598    -6.8493    -0.2894 H       
  60 H60           -0.0026    -7.2737     1.0886 H       
  61 H61           -1.5200    -8.4532    -5.4147 H       
  62 H62           -3.3351    -8.0587    -3.7983 H       
  63 H63           -2.9953    -6.5016    -1.9212 H       
  64 H64            0.6359    -7.2928    -5.1525 H       
  65 H65            0.9755    -5.7353    -3.2758 H       
  66 H66            5.4301     4.0978    -5.7284 H       
  67 H67            3.9651     5.0655    -5.4358 H       
  68 H68            5.3383     7.1296    -5.3870 H       
  69 H69            6.8033     6.1619    -5.6796 H       
  70 H70            5.8549     5.3770    -7.8321 H       
  71 H71            4.3899     6.3447    -7.5395 H       
  72 H72            6.3055     8.4624   -10.3662 H       
  73 H73            6.2402     6.6882   -10.2395 H       
  74 H74            4.7752     7.6559    -9.9469 H       
@<TRIPOS>BOND
   1    1    2 2
   2    1    3 1
   3    1   43 1
   4    2   18 1
   5    2    5 1
   6    3    4 2
   7    3   12 1
   8    4    5 1
   9    4    6 1
  10    6    7 ar
  11    6    8 ar
  12    7   27 1
  13    7   11 ar
  14    8    9 ar
  15    8   44 1
  16    9   10 ar
  17    9   45 1
  18   10   11 ar
  19   10   41 1
  20   11   46 1
  21   12   13 ar
  22   12   14 ar
  23   13   17 ar
  24   13   47 1
  25   14   15 ar
  26   14   48 1
  27   15   16 ar
  28   15   49 1
  29   16   17 ar
  30   16   36 1
  31   17   50 1
  32   18   19 2
  33   18   20 am
  34   20   21 1
  35   20   22 1
  36   21   25 1
  37   21   51 1
  38   21   52 1
  39   22   23 1
  40   22   53 1
  41   22   54 1
  42   23   24 1
  43   23   55 1
  44   23   56 1
  45   24   25 1
  46   24   26 1
  47   24   28 1
  48   25   57 1
  49   25   58 1
  50   26   33 ar
  51   26   35 ar
  52   28   29 am
  53   28   30 2
  54   29   59 1
  55   29   60 1
  56   31   32 ar
  57   31   34 ar
  58   31   61 1
  59   32   33 ar
  60   32   62 1
  61   33   63 1
  62   34   35 ar
  63   34   64 1
  64   35   65 1
  65   36   37 1
  66   37   38 1
  67   37   66 1
  68   37   67 1
  69   38   39 1
  70   38   68 1
  71   38   69 1
  72   39   40 1
  73   39   70 1
  74   39   71 1
  75   40   42 1
  76   42   72 1
  77   42   73 1
  78   42   74 1

#	End of record

