#	Name: ASD01478046
#	Creating user name:	WinNT
#	Creation time:	15. 06. 2019 19:21

#	Modifying user name:	WinNT
#	Modification time:	15. 06. 2019 19:21

#	Program:	/corina/corina34_cracker 3.40 0067  02.08.2006

@<TRIPOS>MOLECULE
ASD01478046
  80   83    0    0    0
SMALL
NO_CHARGES


@<TRIPOS>ATOM
   1 C1             0.5499     0.7876     2.3386 C.3     
   2 C2             0.4934    -0.7277     2.6088 C.3     
   3 C3             2.0157     1.1809     2.6451 C.3     
   4 C4             2.8138    -0.0352     2.1135 C.3     
   5 C5             1.9450    -1.2523     2.4957 C.3     
   6 C6            -0.8977     2.6382     2.7580 C.2     
   7 O7            -0.3600     1.4944     3.2222 O.3     
   8 N8            -1.7502     3.3431     3.5280 N.am    
   9 O9            -0.6144     3.0349     1.6450 O.2     
  10 C10           -3.5806     4.2662     2.1941 C.3     
  11 C11           -2.3353     4.5876     3.0229 C.3     
  12 C12           -2.7239     5.4834     4.2008 C.3     
  13 C13           -3.2190     6.8320     3.6745 C.3     
  14 N14           -3.4518     7.7400     4.8003 N.am    
  15 S15           -2.2679     8.7991     5.2683 S.o2    
  16 C16           -2.5099    10.2877     4.3571 C.ar    
  17 C17           -3.3190    11.2858     4.8679 C.ar    
  18 C18           -3.5104    12.4538     4.1554 C.ar    
  19 C19           -2.8899    12.6248     2.9265 C.ar    
  20 C20           -2.0785    11.6218     2.4161 C.ar    
  21 C21           -1.8859    10.4580     3.1351 C.ar    
  22 O22           -2.5273     9.1151     6.6292 O.2     
  23 O23           -1.0371     8.2492     4.8190 O.2     
  24 C24           -4.7319     7.7110     5.5122 C.3     
  25 C25           -5.8535     8.1356     4.5622 C.3     
  26 C26           -7.2047     7.9620     5.2585 C.3     
  27 C27           -5.6646     9.6034     4.1739 C.3     
  28 O28           -3.7632     4.8554     4.9542 O.3     
  29 O29            2.3345    -1.7002     3.8056 O.3     
  30 C30            1.1278    -2.0643     4.5083 C.3     
  31 C31            0.1201    -0.9632     4.0907 C.3     
  32 O32            4.0909    -0.1125     2.7498 O.3     
  33 C33           -3.1805     3.4873     0.9677 C.ar    
  34 C34           -3.1354     2.1063     1.0101 C.ar    
  35 C35           -2.7683     1.3918    -0.1148 C.ar    
  36 C36           -2.4468     2.0583    -1.2825 C.ar    
  37 C37           -2.4927     3.4392    -1.3252 C.ar    
  38 C38           -2.8640     4.1535    -0.2015 C.ar    
  39 O39           -3.0769    13.7727     2.2235 O.3     
  40 C40           -2.4068    13.8797     0.9658 C.3     
  41 H41            0.3095     0.9975     1.2963 H       
  42 H42           -0.1796    -1.2380     1.9198 H       
  43 H43            2.2923     2.0888     2.1090 H       
  44 H44            2.1667     1.3032     3.7176 H       
  45 H45            2.9286     0.0271     1.0313 H       
  46 H46            2.0248    -2.0466     1.7535 H       
  47 H47           -1.9764     3.0265     4.4165 H       
  48 H48           -4.2718     3.6724     2.7922 H       
  49 H49           -4.0660     5.1944     1.8927 H       
  50 H50           -1.6067     5.1044     2.3983 H       
  51 H51           -1.8552     5.6397     4.8404 H       
  52 H52           -2.4680     7.2609     3.0110 H       
  53 H53           -4.1495     6.6882     3.1252 H       
  54 H54           -3.8021    11.1520     5.8245 H       
  55 H55           -4.1427    13.2329     4.5547 H       
  56 H56           -1.5944    11.7526     1.4596 H       
  57 H57           -1.2543     9.6769     2.7383 H       
  58 H58           -4.9242     6.7005     5.8728 H       
  59 H59           -4.6928     8.3973     6.3580 H       
  60 H60           -5.8244     7.5160     3.6658 H       
  61 H61           -7.2337     8.5816     6.1549 H       
  62 H62           -8.0038     8.2645     4.5817 H       
  63 H63           -7.3393     6.9163     5.5352 H       
  64 H64           -4.6990     9.7282     3.6839 H       
  65 H65           -6.4598     9.9039     3.4916 H       
  66 H66           -5.7006    10.2236     5.0694 H       
  67 H67           -4.5979     4.7660     4.4741 H       
  68 H68            0.7784    -3.0458     4.1879 H       
  69 H69            1.2909    -2.0467     5.5858 H       
  70 H70            0.2686    -0.0571     4.6780 H       
  71 H71           -0.9058    -1.3202     4.1814 H       
  72 H72            4.6563     0.6559     2.5916 H       
  73 H73           -3.3866     1.5856     1.9224 H       
  74 H74           -2.7324     0.3129    -0.0814 H       
  75 H75           -2.1593     1.5001    -2.1612 H       
  76 H76           -2.2412     3.9599    -2.2374 H       
  77 H77           -2.9036     5.2322    -0.2360 H       
  78 H78           -2.7381    13.0762     0.3081 H       
  79 H79           -2.6407    14.8419     0.5103 H       
  80 H80           -1.3305    13.8027     1.1199 H       
@<TRIPOS>BOND
   1    1    2 1
   2    1    3 1
   3    1    7 1
   4    1   41 1
   5    2    5 1
   6    2   31 1
   7    2   42 1
   8    3    4 1
   9    3   43 1
  10    3   44 1
  11    4    5 1
  12    4   32 1
  13    4   45 1
  14    5   29 1
  15    5   46 1
  16    6    7 1
  17    6    8 am
  18    6    9 2
  19    8   11 1
  20    8   47 1
  21   10   11 1
  22   10   33 1
  23   10   48 1
  24   10   49 1
  25   11   12 1
  26   11   50 1
  27   12   13 1
  28   12   28 1
  29   12   51 1
  30   13   14 1
  31   13   52 1
  32   13   53 1
  33   14   15 am
  34   14   24 1
  35   15   16 1
  36   15   22 2
  37   15   23 2
  38   16   17 ar
  39   16   21 ar
  40   17   18 ar
  41   17   54 1
  42   18   19 ar
  43   18   55 1
  44   19   20 ar
  45   19   39 1
  46   20   21 ar
  47   20   56 1
  48   21   57 1
  49   24   25 1
  50   24   58 1
  51   24   59 1
  52   25   26 1
  53   25   27 1
  54   25   60 1
  55   26   61 1
  56   26   62 1
  57   26   63 1
  58   27   64 1
  59   27   65 1
  60   27   66 1
  61   28   67 1
  62   29   30 1
  63   30   31 1
  64   30   68 1
  65   30   69 1
  66   31   70 1
  67   31   71 1
  68   32   72 1
  69   33   34 ar
  70   33   38 ar
  71   34   35 ar
  72   34   73 1
  73   35   36 ar
  74   35   74 1
  75   36   37 ar
  76   36   75 1
  77   37   38 ar
  78   37   76 1
  79   38   77 1
  80   39   40 1
  81   40   78 1
  82   40   79 1
  83   40   80 1

#	End of record

