#	Name: ASD00071058
#	Creating user name:	WinNT
#	Creation time:	15. 06. 2019 18:30

#	Modifying user name:	WinNT
#	Modification time:	15. 06. 2019 18:30

#	Program:	/corina/corina34_cracker 3.40 0067  02.08.2006

@<TRIPOS>MOLECULE
ASD00071058
  44   46    0    0    0
SMALL
NO_CHARGES


@<TRIPOS>ATOM
   1 N1             1.8328     1.2435    -1.2022 N.ar    
   2 C2             1.6393    -0.0590    -1.1904 C.ar    
   3 C3             1.3737    -0.7499     0.0006 C.ar    
   4 C4             1.3115    -0.0708     1.1797 C.ar    
   5 C5             1.5197     1.3240     1.1598 C.ar    
   6 C6             1.4698     2.0832     2.3392 C.ar    
   7 C7             1.6753     3.4288     2.2896 C.ar    
   8 C8             1.9354     4.0685     1.0810 C.ar    
   9 C9             1.9915     3.3569    -0.0955 C.ar    
  10 C10            1.7837     1.9626    -0.0753 C.ar    
  11 N11            1.6991    -0.7641    -2.3842 N.pl3   
  12 O12            2.2453     3.9938    -1.2686 O.3     
  13 C13            2.4451     5.4075    -1.2093 C.3     
  14 C14            1.1569    -2.2411    -0.0239 C.3     
  15 C15            1.0265    -2.7530     1.3874 C.ar    
  16 C16           -0.2253    -2.8639     1.9729 C.ar    
  17 C17           -0.3427    -3.3355     3.2728 C.ar    
  18 C18            0.7866    -3.6946     3.9833 C.ar    
  19 C19            2.0353    -3.5851     3.4020 C.ar    
  20 C20            2.1576    -3.1193     2.1005 C.ar    
  21 O21            3.3855    -3.0171     1.5273 O.3     
  22 C22            4.5066    -3.4122     2.3204 C.3     
  23 O23           -1.3363    -2.5104     1.2747 O.3     
  24 C24           -2.5929    -2.6507     1.9406 C.3     
  25 H25            1.1077    -0.5871     2.1062 H       
  26 H26            1.2683     1.6013     3.2845 H       
  27 H27            1.6356     4.0075     3.2006 H       
  28 H28            2.0948     5.1365     1.0664 H       
  29 H29            1.8000    -0.2887    -3.2237 H       
  30 H30            1.6401    -1.7323    -2.3791 H       
  31 H31            2.6382     5.7896    -2.2117 H       
  32 H32            1.5522     5.8840    -0.8047 H       
  33 H33            3.2973     5.6274    -0.5663 H       
  34 H34            0.2457    -2.4667    -0.5779 H       
  35 H35            2.0056    -2.7237    -0.5085 H       
  36 H36           -1.3176    -3.4217     3.7294 H       
  37 H37            0.6932    -4.0611     4.9949 H       
  38 H38            2.9165    -3.8663     3.9594 H       
  39 H39            5.4230    -3.2811     1.7450 H       
  40 H40            4.5507    -2.7970     3.2191 H       
  41 H41            4.4012    -4.4599     2.6021 H       
  42 H42           -2.7418    -3.6938     2.2196 H       
  43 H43           -2.6005    -2.0302     2.8367 H       
  44 H44           -3.3949    -2.3350     1.2733 H       
@<TRIPOS>BOND
   1    1    2 ar
   2    1   10 ar
   3    2    3 ar
   4    2   11 1
   5    3    4 ar
   6    3   14 1
   7    4    5 ar
   8    4   25 1
   9    5    6 ar
  10    5   10 ar
  11    6    7 ar
  12    6   26 1
  13    7    8 ar
  14    7   27 1
  15    8    9 ar
  16    8   28 1
  17    9   10 ar
  18    9   12 1
  19   11   29 1
  20   11   30 1
  21   12   13 1
  22   13   31 1
  23   13   32 1
  24   13   33 1
  25   14   15 1
  26   14   34 1
  27   14   35 1
  28   15   16 ar
  29   15   20 ar
  30   16   17 ar
  31   16   23 1
  32   17   18 ar
  33   17   36 1
  34   18   19 ar
  35   18   37 1
  36   19   20 ar
  37   19   38 1
  38   20   21 1
  39   21   22 1
  40   22   39 1
  41   22   40 1
  42   22   41 1
  43   23   24 1
  44   24   42 1
  45   24   43 1
  46   24   44 1

#	End of record

