#	Name: ASD01890565
#	Creating user name:	WinNT
#	Creation time:	15. 06. 2019 19:51

#	Modifying user name:	WinNT
#	Modification time:	15. 06. 2019 19:51

#	Program:	/corina/corina34_cracker 3.40 0067  02.08.2006

@<TRIPOS>MOLECULE
ASD01890565
  27   28    0    0    0
SMALL
NO_CHARGES


@<TRIPOS>ATOM
   1 C1            -0.0184     1.5084     0.0103 C.2     
   2 C2             0.0021    -0.0041     0.0020 C.3     
   3 C3            -0.8921    -0.5103     1.1413 C.3     
   4 C4            -2.2769     0.1358     1.0043 C.3     
   5 C5            -2.1019     1.6363     0.9266 C.2     
   6 O6             1.0093     2.1435     0.0039 O.2     
   7 O7            -2.7304     2.3731     1.6490 O.2     
   8 O8            -1.2209     2.1304     0.0195 O.3     
   9 C9            -1.0227    -2.0090     1.0535 C.ar    
  10 C10           -0.6005    -2.8025     2.1040 C.ar    
  11 C11           -0.7203    -4.1770     2.0235 C.ar    
  12 C12           -1.2627    -4.7586     0.8925 C.ar    
  13 C13           -1.6856    -3.9654    -0.1574 C.ar    
  14 C14           -1.5698    -2.5901    -0.0750 C.ar    
  15 C15           -0.0093    -2.1686     3.3368 C.3     
  16 H16           -0.3778    -0.3701    -0.9518 H       
  17 H17            1.0222    -0.3572     0.1528 H       
  18 H18           -0.4534    -0.2348     2.1003 H       
  19 H19           -2.7604    -0.2239     0.0960 H       
  20 H20           -2.8864    -0.1173     1.8717 H       
  21 H21           -0.3898    -4.7969     2.8439 H       
  22 H22           -1.3556    -5.8327     0.8293 H       
  23 H23           -2.1090    -4.4197    -1.0410 H       
  24 H24           -1.9037    -1.9701    -0.8938 H       
  25 H25           -0.8031    -1.9584     4.0536 H       
  26 H26            0.7137    -2.8503     3.7848 H       
  27 H27            0.4892    -1.2385     3.0636 H       
@<TRIPOS>BOND
   1    1    2 1
   2    1    6 2
   3    1    8 1
   4    2    3 1
   5    2   16 1
   6    2   17 1
   7    3    4 1
   8    3    9 1
   9    3   18 1
  10    4    5 1
  11    4   19 1
  12    4   20 1
  13    5    7 2
  14    5    8 1
  15    9   10 ar
  16    9   14 ar
  17   10   11 ar
  18   10   15 1
  19   11   12 ar
  20   11   21 1
  21   12   13 ar
  22   12   22 1
  23   13   14 ar
  24   13   23 1
  25   14   24 1
  26   15   25 1
  27   15   26 1
  28   15   27 1

#	End of record

