#	Name: ASD01881783
#	Creating user name:	WinNT
#	Creation time:	15. 06. 2019 19:43

#	Modifying user name:	WinNT
#	Modification time:	15. 06. 2019 19:43

#	Program:	/corina/corina34_cracker 3.40 0067  02.08.2006

@<TRIPOS>MOLECULE
ASD01881783
  46   49    0    0    0
SMALL
NO_CHARGES


@<TRIPOS>ATOM
   1 C1            -0.0161     1.3337     0.0094 C.2     
   2 N2             0.0021    -0.0041     0.0020 N.am    
   3 C3             1.2613    -0.4841    -0.0126 C.2     
   4 C4             2.1640     0.7337    -0.0147 C.3     
   5 N5             1.2200     1.8645     0.0004 N.am    
   6 O6            -1.0354     1.9955     0.0180 O.2     
   7 O7             1.6013    -1.6477    -0.0215 O.2     
   8 C8            -1.1986    -0.8435     0.0097 C.3     
   9 C9             1.5609     3.2893     0.0041 C.3     
  10 C10            1.6936     3.7782     1.4478 C.3     
  11 C11            2.0496     5.2662     1.4516 C.3     
  12 O12            2.1735     5.7228     2.8000 O.3     
  13 N13            3.4371    10.9572     3.8046 N.pl3   
  14 N14            3.4267    10.8529     5.2035 N.2     
  15 N15            3.1409     9.6449     5.5406 N.2     
  16 C16            2.9475     8.8856     4.4437 C.ar    
  17 C17            3.1325     9.7065     3.3177 C.ar    
  18 C18            2.6228     7.5345     4.2598 C.ar    
  19 C19            2.4889     7.0331     2.9816 C.ar    
  20 C20            2.6749     7.8591     1.8756 C.ar    
  21 C21            2.9932     9.1778     2.0395 C.ar    
  22 C22            3.7118    12.1616     3.0172 C.3     
  23 C23            5.2117    12.2510     2.7284 C.3     
  24 C24            5.6890    13.3817     1.8148 C.3     
  25 C25            5.9748    13.4395     3.3168 C.3     
  26 Br26           2.3686     6.4055     5.7554 Br      
  27 H27            2.7924     0.7467     0.8759 H       
  28 H28            2.7753     0.7564    -0.9169 H       
  29 H29           -1.5068    -1.0461    -1.0159 H       
  30 H30           -0.9813    -1.7838     0.5163 H       
  31 H31           -2.0010    -0.3250     0.5345 H       
  32 H32            2.5060     3.4381    -0.5182 H       
  33 H33            0.7749     3.8522    -0.4994 H       
  34 H34            0.7485     3.6293     1.9701 H       
  35 H35            2.4796     3.2153     1.9512 H       
  36 H36            2.9946     5.4150     0.9293 H       
  37 H37            1.2636     5.8291     0.9482 H       
  38 H38            2.5675     7.4537     0.8804 H       
  39 H39            3.1356     9.8100     1.1755 H       
  40 H40            3.1630    12.1139     2.0767 H       
  41 H41            3.3966    13.0418     3.5776 H       
  42 H42            5.7359    11.2975     2.6651 H       
  43 H43            6.5275    13.1721     1.1507 H       
  44 H44            4.9345    14.0618     1.4195 H       
  45 H45            5.4083    14.1577     3.9096 H       
  46 H46            7.0013    13.2680     3.6408 H       
@<TRIPOS>BOND
   1    1    2 am
   2    1    5 am
   3    1    6 2
   4    2    3 am
   5    2    8 1
   6    3    4 1
   7    3    7 2
   8    4    5 1
   9    4   27 1
  10    4   28 1
  11    5    9 1
  12    8   29 1
  13    8   30 1
  14    8   31 1
  15    9   10 1
  16    9   32 1
  17    9   33 1
  18   10   11 1
  19   10   34 1
  20   10   35 1
  21   11   12 1
  22   11   36 1
  23   11   37 1
  24   12   19 1
  25   13   14 1
  26   13   17 1
  27   13   22 1
  28   14   15 2
  29   15   16 1
  30   16   17 ar
  31   16   18 ar
  32   17   21 ar
  33   18   19 ar
  34   18   26 1
  35   19   20 ar
  36   20   21 ar
  37   20   38 1
  38   21   39 1
  39   22   23 1
  40   22   40 1
  41   22   41 1
  42   23   24 1
  43   23   25 1
  44   23   42 1
  45   24   25 1
  46   24   43 1
  47   24   44 1
  48   25   45 1
  49   25   46 1

#	End of record

