#	Name: ASD06660037
#	Creating user name:	WinNT
#	Creation time:	15. 06. 2019 21:07

#	Modifying user name:	WinNT
#	Modification time:	15. 06. 2019 21:07

#	Program:	/corina/corina34_cracker 3.40 0067  02.08.2006

@<TRIPOS>MOLECULE
ASD06660037
  74   77    0    0    0
SMALL
NO_CHARGES


@<TRIPOS>ATOM
   1 C1            -0.0184     1.5028     0.0103 C.2     
   2 C2             0.0021    -0.0041     0.0020 C.3     
   3 C3            -0.7241    -0.5171    -1.2431 C.3     
   4 O4             1.0197     2.1211     0.0037 O.2     
   5 O5            -1.1898     2.1580     0.0194 O.3     
   6 C6            -0.8113    -2.0207    -1.1900 C.ar    
   7 C7            -1.8983    -2.6278    -0.5884 C.ar    
   8 C8            -1.9814    -4.0054    -0.5380 C.ar    
   9 C9            -0.9713    -4.7813    -1.0925 C.ar    
  10 C10            0.1192    -4.1682    -1.6960 C.ar    
  11 C11            0.1932    -2.7901    -1.7480 C.ar    
  12 N12           -1.0519    -6.1748    -1.0428 N.3     
  13 C13            0.1154    -6.7927    -1.6847 C.3     
  14 C14           -0.0755    -8.3100    -1.7414 C.3     
  15 C15           -0.2456    -8.8516    -0.3193 C.3     
  16 C16           -1.4383    -8.1570     0.3437 C.3     
  17 C17           -1.2079    -6.6440     0.3399 C.3     
  18 C18           -0.4975   -10.3598    -0.3732 C.3     
  19 N19           -0.5413   -10.8966     0.9892 N.pl3   
  20 C20           -0.7596   -12.2539     1.1947 C.ar    
  21 C21           -0.9358   -13.0971     0.1020 C.ar    
  22 C22           -1.1521   -14.4454     0.3210 C.ar    
  23 C23           -1.1853   -14.9073     1.6304 C.ar    
  24 C24           -1.0027   -14.0145     2.6670 C.ar    
  25 N25           -0.7927   -12.7337     2.4282 N.ar    
  26 N26            1.3897    -0.4735    -0.0138 N.am    
  27 C27            2.0717    -0.5994     1.1419 C.2     
  28 C28            3.4739    -1.0738     1.1259 C.ar    
  29 C29            3.7500    -2.4384     1.2213 C.ar    
  30 C30            5.0554    -2.8801     1.2060 C.ar    
  31 C31            6.1012    -1.9627     1.0951 C.ar    
  32 C32            5.8251    -0.5980     1.0002 C.ar    
  33 C33            4.5195    -0.1568     1.0097 C.ar    
  34 O34            1.5356    -0.3234     2.1970 O.2     
  35 C35            4.2212     1.3164     0.9010 C.3     
  36 C36            2.6207    -3.4290     1.3416 C.3     
  37 C37            7.5033    -2.4372     1.0787 C.2     
  38 N38            8.5133    -1.5512     0.9716 N.am    
  39 O39            7.7437    -3.6255     1.1617 O.2     
  40 H40           -0.4983    -0.3791     0.8948 H       
  41 H41           -1.7288    -0.0959    -1.2772 H       
  42 H42           -0.1736    -0.2164    -2.1345 H       
  43 H43           -1.1523     3.1243     0.0245 H       
  44 H44           -2.6831    -2.0240    -0.1572 H       
  45 H45           -2.8305    -4.4790    -0.0677 H       
  46 H46            0.9062    -4.7685    -2.1281 H       
  47 H47            1.0385    -2.3127    -2.2213 H       
  48 H48            0.2226    -6.4021    -2.6967 H       
  49 H49            1.0115    -6.5606    -1.1092 H       
  50 H50           -0.9638    -8.5434    -2.3284 H       
  51 H51            0.7981    -8.7697    -2.2037 H       
  52 H52            0.6581    -8.6527     0.2568 H       
  53 H53           -2.3480    -8.3879    -0.2105 H       
  54 H54           -1.5385    -8.5072     1.3710 H       
  55 H55           -0.3056    -6.4127     0.9059 H       
  56 H56           -2.0619    -6.1455     0.7984 H       
  57 H57           -1.4485   -10.5517    -0.8701 H       
  58 H58            0.3065   -10.8428    -0.9284 H       
  59 H59           -0.4180   -10.3049     1.7478 H       
  60 H60           -0.9043   -12.7040    -0.9034 H       
  61 H61           -1.2925   -15.1238    -0.5075 H       
  62 H62           -1.3525   -15.9544     1.8353 H       
  63 H63           -1.0277   -14.3695     3.6867 H       
  64 H64            1.8177    -0.6938    -0.8559 H       
  65 H65            5.2690    -3.9362     1.2802 H       
  66 H66            6.6345     0.1120     0.9151 H       
  67 H67            4.1896     1.7553     1.8982 H       
  68 H68            5.0007     1.8026     0.3145 H       
  69 H69            3.2574     1.4567     0.4115 H       
  70 H70            2.3091    -3.7474     0.3467 H       
  71 H71            2.9564    -4.2953     1.9117 H       
  72 H72            1.7797    -2.9610     1.8532 H       
  73 H73            8.3214    -0.6027     0.9053 H       
  74 H74            9.4321    -1.8621     0.9608 H       
@<TRIPOS>BOND
   1    1    2 1
   2    1    4 2
   3    1    5 1
   4    2    3 1
   5    2   26 1
   6    2   40 1
   7    3    6 1
   8    3   41 1
   9    3   42 1
  10    5   43 1
  11    6    7 ar
  12    6   11 ar
  13    7    8 ar
  14    7   44 1
  15    8    9 ar
  16    8   45 1
  17    9   10 ar
  18    9   12 1
  19   10   11 ar
  20   10   46 1
  21   11   47 1
  22   12   13 1
  23   12   17 1
  24   13   14 1
  25   13   48 1
  26   13   49 1
  27   14   15 1
  28   14   50 1
  29   14   51 1
  30   15   16 1
  31   15   18 1
  32   15   52 1
  33   16   17 1
  34   16   53 1
  35   16   54 1
  36   17   55 1
  37   17   56 1
  38   18   19 1
  39   18   57 1
  40   18   58 1
  41   19   20 1
  42   19   59 1
  43   20   21 ar
  44   20   25 ar
  45   21   22 ar
  46   21   60 1
  47   22   23 ar
  48   22   61 1
  49   23   24 ar
  50   23   62 1
  51   24   25 ar
  52   24   63 1
  53   26   27 am
  54   26   64 1
  55   27   28 1
  56   27   34 2
  57   28   29 ar
  58   28   33 ar
  59   29   30 ar
  60   29   36 1
  61   30   31 ar
  62   30   65 1
  63   31   32 ar
  64   31   37 1
  65   32   33 ar
  66   32   66 1
  67   33   35 1
  68   35   67 1
  69   35   68 1
  70   35   69 1
  71   36   70 1
  72   36   71 1
  73   36   72 1
  74   37   38 am
  75   37   39 2
  76   38   73 1
  77   38   74 1

#	End of record

