#	Name: ASD08070653
#	Creating user name:	WinNT
#	Creation time:	15. 06. 2019 21:15

#	Modifying user name:	WinNT
#	Modification time:	15. 06. 2019 21:15

#	Program:	/corina/corina34_cracker 3.40 0067  02.08.2006

@<TRIPOS>MOLECULE
ASD08070653
  45   45    0    0    0
SMALL
NO_CHARGES


@<TRIPOS>ATOM
   1 C1            -0.0179     1.4719     0.0101 C.2     
   2 C2             0.0021    -0.0041     0.0020 C.ar    
   3 C3             1.2210    -0.6879    -0.0133 C.ar    
   4 C4             1.2344    -2.0688    -0.0204 C.ar    
   5 C5             0.0337    -2.7777    -0.0122 C.ar    
   6 C6            -1.1766    -2.0984     0.0025 C.ar    
   7 C7            -1.1969    -0.7203     0.0155 C.ar    
   8 O8             1.0266     2.0941     0.0035 O.2     
   9 N9            -1.1942     2.1298     0.0193 N.am    
  10 C10           -1.2140     3.5946     0.0273 C.3     
  11 C11           -1.1021     4.1141    -1.4074 C.3     
  12 C12            0.2626     3.7310    -1.9835 C.3     
  13 C13            0.3746     4.2505    -3.4182 C.3     
  14 C14           -2.5253     4.0835     0.6459 C.3     
  15 C15           -2.5802     3.6699     2.1179 C.3     
  16 C16           -3.8915     4.1587     2.7364 C.3     
  17 O17            0.0484    -4.1356    -0.0192 O.3     
  18 C18           -1.2176    -4.7982    -0.0102 C.3     
  19 O19            2.4187    -2.7373    -0.0357 O.3     
  20 C20            3.6095    -1.9474    -0.0438 C.3     
  21 H21            2.1502    -0.1376    -0.0199 H       
  22 H22           -2.1045    -2.6510     0.0084 H       
  23 H23           -2.1399    -0.1942     0.0318 H       
  24 H24           -2.0275     1.6334     0.0205 H       
  25 H25           -0.3744     3.9662     0.6148 H       
  26 H26           -1.8906     3.6721    -2.0164 H       
  27 H27           -1.2059     5.1991    -1.4101 H       
  28 H28            1.0511     4.1730    -1.3744 H       
  29 H29            0.3665     2.6460    -1.9808 H       
  30 H30            1.3468     3.9775    -3.8286 H       
  31 H31           -0.4140     3.8084    -4.0273 H       
  32 H32            0.2707     5.3355    -3.4209 H       
  33 H33           -2.5794     5.1696     0.5714 H       
  34 H34           -3.3661     3.6404     0.1123 H       
  35 H35           -2.5261     2.5838     2.1923 H       
  36 H36           -1.7394     4.1130     2.6514 H       
  37 H37           -3.9456     5.2448     2.6619 H       
  38 H38           -4.7323     3.7156     2.2028 H       
  39 H39           -3.9306     3.8640     3.7851 H       
  40 H40           -1.7691    -4.5159     0.8867 H       
  41 H41           -1.7864    -4.5070    -0.8932 H       
  42 H42           -1.0630    -5.8772    -0.0171 H       
  43 H43            3.6193    -1.3139    -0.9308 H       
  44 H44            3.6373    -1.3228     0.8491 H       
  45 H45            4.4803    -2.6029    -0.0559 H       
@<TRIPOS>BOND
   1    1    2 1
   2    1    8 2
   3    1    9 am
   4    2    3 ar
   5    2    7 ar
   6    3    4 ar
   7    3   21 1
   8    4    5 ar
   9    4   19 1
  10    5    6 ar
  11    5   17 1
  12    6    7 ar
  13    6   22 1
  14    7   23 1
  15    9   10 1
  16    9   24 1
  17   10   11 1
  18   10   14 1
  19   10   25 1
  20   11   12 1
  21   11   26 1
  22   11   27 1
  23   12   13 1
  24   12   28 1
  25   12   29 1
  26   13   30 1
  27   13   31 1
  28   13   32 1
  29   14   15 1
  30   14   33 1
  31   14   34 1
  32   15   16 1
  33   15   35 1
  34   15   36 1
  35   16   37 1
  36   16   38 1
  37   16   39 1
  38   17   18 1
  39   18   40 1
  40   18   41 1
  41   18   42 1
  42   19   20 1
  43   20   43 1
  44   20   44 1
  45   20   45 1

#	End of record

