#	Name: ASD02030528
#	Creating user name:	WinNT
#	Creation time:	15. 06. 2019 20:15

#	Modifying user name:	WinNT
#	Modification time:	15. 06. 2019 20:15

#	Program:	/corina/corina34_cracker 3.40 0067  02.08.2006

@<TRIPOS>MOLECULE
ASD02030528
  59   63    0    0    0
SMALL
NO_CHARGES


@<TRIPOS>ATOM
   1 N1            -0.3599     1.4533    -0.3861 N.am    
   2 C2            -0.3824    -0.0156    -0.3444 C.3     
   3 C3            -1.1682    -0.4587     0.8960 C.3     
   4 N4            -2.4437     0.2704     0.9291 N.am    
   5 C5            -2.4212     1.7393     0.8875 C.3     
   6 C6            -1.6353     2.1825    -0.3473 C.3     
   7 C7             0.8096     2.1197    -0.4530 C.2     
   8 C8             2.0873     1.3814    -0.3643 C.2     
   9 N9             3.2874     1.9166    -0.3004 N.2     
  10 N10            2.2273     0.0435    -0.3289 N.2     
  11 C11            3.5085    -0.2115    -0.2492 C.2     
  12 N12            4.1590     0.9700    -0.2322 N.pl3   
  13 O13            0.8138     3.3280    -0.5862 O.2     
  14 C14           -3.6133    -0.3961     0.9961 C.2     
  15 C15           -3.6262    -1.8716     0.9428 C.ar    
  16 O16           -4.6576     0.2176     1.1003 O.2     
  17 C17           -1.3662     3.6868    -0.2720 C.3     
  18 C18           -2.4392     1.8637    -1.6094 C.3     
  19 C19            5.5479     1.1394    -0.1541 C.ar    
  20 C20            6.0933     2.4158    -0.1450 C.ar    
  21 C21            7.4639     2.5796    -0.0673 C.ar    
  22 C22            8.2911     1.4723     0.0007 C.ar    
  23 C23            7.7496     0.1999    -0.0083 C.ar    
  24 C24            6.3809     0.0307    -0.0799 C.ar    
  25 C25           -2.7311    -2.6089     1.7308 C.ar    
  26 Cl26           8.1477     4.1752    -0.0558 Cl      
  27 C27           -4.5307    -2.5294     0.1148 C.ar    
  28 C28           -4.5327    -3.9215     0.0743 C.ar    
  29 C29           -3.6247    -4.6507     0.8669 C.ar    
  30 C30           -2.7311    -3.9715     1.6931 C.ar    
  31 C31           -5.3208    -4.9169    -0.6582 C.2     
  32 C32           -4.8680    -6.1241    -0.2861 C.2     
  33 N33           -3.8555    -5.9832     0.6239 N.pl3   
  34 C34           -3.1256    -7.0900     1.2473 C.3     
  35 H35           -0.8681    -0.3997    -1.2415 H       
  36 H36            0.6375    -0.3956    -0.2863 H       
  37 H37           -1.3606    -1.5303     0.8437 H       
  38 H38           -0.5933    -0.2312     1.7938 H       
  39 H39           -3.4412     2.1193     0.8294 H       
  40 H40           -1.9356     2.1233     1.7846 H       
  41 H41            3.9624    -1.1904    -0.2023 H       
  42 H42           -0.6991     3.8952     0.5643 H       
  43 H43           -0.9007     4.0195    -1.1998 H       
  44 H44           -2.3073     4.2174    -0.1271 H       
  45 H45           -3.3914     2.3930    -1.5771 H       
  46 H46           -1.8770     2.1804    -2.4879 H       
  47 H47           -2.6217     0.7904    -1.6624 H       
  48 H48            5.4477     3.2800    -0.1988 H       
  49 H49            9.3616     1.6021     0.0606 H       
  50 H50            8.3977    -0.6624     0.0446 H       
  51 H51            5.9590    -0.9635    -0.0865 H       
  52 H52           -2.0344    -2.0920     2.3740 H       
  53 H53           -5.2250    -1.9656    -0.4905 H       
  54 H54           -2.0330    -4.5267     2.3021 H       
  55 H55           -6.1147    -4.7170    -1.3625 H       
  56 H56           -5.2470    -7.0675    -0.6504 H       
  57 H57           -2.2596    -7.3441     0.6360 H       
  58 H58           -2.7935    -6.7918     2.2417 H       
  59 H59           -3.7806    -7.9575     1.3279 H       
@<TRIPOS>BOND
   1    1    2 1
   2    1    7 am
   3    1    6 1
   4    2    3 1
   5    2   35 1
   6    2   36 1
   7    3    4 1
   8    3   37 1
   9    3   38 1
  10    4    5 1
  11    4   14 am
  12    5    6 1
  13    5   39 1
  14    5   40 1
  15    6   17 1
  16    6   18 1
  17    7    8 1
  18    7   13 2
  19    8    9 2
  20    8   10 1
  21    9   12 1
  22   10   11 2
  23   11   12 1
  24   11   41 1
  25   12   19 1
  26   14   15 1
  27   14   16 2
  28   15   27 ar
  29   15   25 ar
  30   17   42 1
  31   17   43 1
  32   17   44 1
  33   18   45 1
  34   18   46 1
  35   18   47 1
  36   19   20 ar
  37   19   24 ar
  38   20   21 ar
  39   20   48 1
  40   21   22 ar
  41   21   26 1
  42   22   23 ar
  43   22   49 1
  44   23   24 ar
  45   23   50 1
  46   24   51 1
  47   25   30 ar
  48   25   52 1
  49   27   28 ar
  50   27   53 1
  51   28   29 ar
  52   28   31 1
  53   29   30 ar
  54   29   33 1
  55   30   54 1
  56   31   32 2
  57   31   55 1
  58   32   33 1
  59   32   56 1
  60   33   34 1
  61   34   57 1
  62   34   58 1
  63   34   59 1

#	End of record

