#	Name: ASD06170142
#	Creating user name:	WinNT
#	Creation time:	15. 06. 2019 21:05

#	Modifying user name:	WinNT
#	Modification time:	15. 06. 2019 21:05

#	Program:	/corina/corina34_cracker 3.40 0067  02.08.2006

@<TRIPOS>MOLECULE
ASD06170142
  82   87    0    0    0
SMALL
NO_CHARGES


@<TRIPOS>ATOM
   1 N1             0.3165     1.8662    -0.1495 N.pl3   
   2 N2             0.3294     2.3859    -1.4473 N.am    
   3 C3             1.6059     2.4223    -1.8828 C.2     
   4 C4             2.4360     1.8931    -0.7891 C.2     
   5 C5             1.5720     1.5736     0.2400 C.2     
   6 C6             3.8954     1.7352    -0.7916 C.2     
   7 O7             4.4599     1.2809     0.1861 O.2     
   8 N8             4.6101     2.0934    -1.8766 N.am    
   9 C9            -0.7930     2.7983    -2.1728 C.ar    
  10 C10           -1.7104     3.6697    -1.6001 C.ar    
  11 C11           -2.8176     4.0749    -2.3192 C.ar    
  12 C12           -3.0136     3.6137    -3.6081 C.ar    
  13 C13           -2.1021     2.7461    -4.1813 C.ar    
  14 C14           -0.9895     2.3419    -3.4697 C.ar    
  15 O15            1.9943     2.8155    -2.9669 O.2     
  16 C16            1.9676     0.9954     1.5742 C.3     
  17 C17           -0.8840     1.6743     0.6679 C.3     
  18 C18           -1.4761     0.2916     0.3876 C.3     
  19 C19           -0.4454    -0.7845     0.7347 C.3     
  20 C20           -2.7300     0.0912     1.2412 C.3     
  21 O21           -1.8208     0.1925    -0.9957 O.3     
  22 C22            6.0090     2.0391    -1.8428 C.ar    
  23 C23            6.6480     1.0305    -1.1333 C.ar    
  24 C24            8.0288     0.9774    -1.1009 C.ar    
  25 C25            8.7764     1.9333    -1.7782 C.ar    
  26 C26            8.1375     2.9397    -2.4861 C.ar    
  27 C27            6.7574     2.9901    -2.5231 C.ar    
  28 O28           10.1351     1.8818    -1.7462 O.3     
  29 C29           12.7869     0.2132    -3.6538 C.ar    
  30 C30           12.1669     1.0558    -2.7270 C.ar    
  31 C31           10.7633     1.0739    -2.6378 C.ar    
  32 C32           10.0362     0.2483    -3.4799 C.ar    
  33 C33           10.7132    -0.5637    -4.3776 C.ar    
  34 N34           12.0200    -0.5665    -4.4457 N.ar    
  35 C35           14.1867     0.3161    -3.6212 C.2     
  36 C36           14.6821     1.1823    -2.7304 C.2     
  37 S37           13.3864     1.9538    -1.8323 S.3     
  38 C38           16.1153     1.4477    -2.5274 C.2     
  39 O39           16.8439     1.6183    -3.4863 O.2     
  40 N40           17.3147     2.5556     1.2053 N.3     
  41 C41           18.0391     3.0080     0.0100 C.3     
  42 C42           18.0176     1.8984    -1.0467 C.3     
  43 N43           16.6206     1.5016    -1.2791 N.am    
  44 C44           15.7894     1.1656    -0.1132 C.3     
  45 C45           15.8986     2.3040     0.9068 C.3     
  46 C46           17.4579     3.5201     2.3040 C.3     
  47 F47            8.6514    -0.0030    -0.4108 F       
  48 H48            4.1555     2.3889    -2.6809 H       
  49 H49           -1.5583     4.0296    -0.5932 H       
  50 H50           -3.5314     4.7524    -1.8744 H       
  51 H51           -3.8806     3.9316    -4.1681 H       
  52 H52           -2.2582     2.3875    -5.1880 H       
  53 H53           -0.2755     1.6680    -3.9197 H       
  54 H54            1.9599    -0.0930     1.5152 H       
  55 H55            2.9687     1.3379     1.8362 H       
  56 H56            1.2604     1.3229     2.3363 H       
  57 H57           -0.6212     1.7499     1.7230 H       
  58 H58           -1.6183     2.4409     0.4206 H       
  59 H59           -0.1825    -0.7089     1.7899 H       
  60 H60           -0.8673    -1.7695     0.5351 H       
  61 H61            0.4478    -0.6417     0.1266 H       
  62 H62           -3.4643     0.8578     0.9939 H       
  63 H63           -3.1518    -0.8939     1.0415 H       
  64 H64           -2.4671     0.1668     2.2963 H       
  65 H65           -2.4715     0.8459    -1.2867 H       
  66 H66            6.0663     0.2882    -0.6070 H       
  67 H67            8.7190     3.6823    -3.0122 H       
  68 H68            6.2605     3.7719    -3.0785 H       
  69 H69            8.9571     0.2369    -3.4377 H       
  70 H70           10.1491    -1.2086    -5.0351 H       
  71 H71           14.8219    -0.2662    -4.2723 H       
  72 H72           17.5586     3.9008    -0.3902 H       
  73 H73           19.0710     3.2377     0.2753 H       
  74 H74           18.4525     2.2685    -1.9751 H       
  75 H75           18.5871     1.0408    -0.6886 H       
  76 H76           14.7511     1.0512    -0.4245 H       
  77 H77           16.1447     0.2375     0.3346 H       
  78 H78           15.3781     2.0232     1.8224 H       
  79 H79           15.4479     3.2066     0.4940 H       
  80 H80           17.0550     4.4848     1.9955 H       
  81 H81           16.9121     3.1606     3.1764 H       
  82 H82           18.5127     3.6304     2.5555 H       
@<TRIPOS>BOND
   1    1    2 1
   2    1    5 1
   3    1   17 1
   4    2    3 am
   5    2    9 1
   6    3    4 1
   7    3   15 2
   8    4    5 2
   9    4    6 1
  10    5   16 1
  11    6    7 2
  12    6    8 am
  13    8   22 1
  14    8   48 1
  15    9   10 ar
  16    9   14 ar
  17   10   11 ar
  18   10   49 1
  19   11   12 ar
  20   11   50 1
  21   12   13 ar
  22   12   51 1
  23   13   14 ar
  24   13   52 1
  25   14   53 1
  26   16   54 1
  27   16   55 1
  28   16   56 1
  29   17   18 1
  30   17   57 1
  31   17   58 1
  32   18   19 1
  33   18   20 1
  34   18   21 1
  35   19   59 1
  36   19   60 1
  37   19   61 1
  38   20   62 1
  39   20   63 1
  40   20   64 1
  41   21   65 1
  42   22   23 ar
  43   22   27 ar
  44   23   24 ar
  45   23   66 1
  46   24   25 ar
  47   24   47 1
  48   25   26 ar
  49   25   28 1
  50   26   27 ar
  51   26   67 1
  52   27   68 1
  53   28   31 1
  54   29   30 ar
  55   29   34 ar
  56   29   35 1
  57   30   31 ar
  58   30   37 1
  59   31   32 ar
  60   32   33 ar
  61   32   69 1
  62   33   34 ar
  63   33   70 1
  64   35   36 2
  65   35   71 1
  66   36   37 1
  67   36   38 1
  68   38   39 2
  69   38   43 am
  70   40   41 1
  71   40   45 1
  72   40   46 1
  73   41   42 1
  74   41   72 1
  75   41   73 1
  76   42   43 1
  77   42   74 1
  78   42   75 1
  79   43   44 1
  80   44   45 1
  81   44   76 1
  82   44   77 1
  83   45   78 1
  84   45   79 1
  85   46   80 1
  86   46   81 1
  87   46   82 1

#	End of record

