#	Name: ASD05380243
#	Creating user name:	WinNT
#	Creation time:	15. 06. 2019 20:59

#	Modifying user name:	WinNT
#	Modification time:	15. 06. 2019 20:59

#	Program:	/corina/corina34_cracker 3.40 0067  02.08.2006

@<TRIPOS>MOLECULE
ASD05380243
  53   55    0    0    0
SMALL
NO_CHARGES


@<TRIPOS>ATOM
   1 C1             0.1635     1.5747     0.9561 C.ar    
   2 C2            -0.0066     0.2751     0.5018 C.ar    
   3 C3             1.0602    -0.4496     0.0170 C.ar    
   4 C4             2.3301     0.1275    -0.0196 C.ar    
   5 C5             2.5030     1.4518     0.4429 C.ar    
   6 C6             1.4100     2.1695     0.9309 C.ar    
   7 N7             3.4068    -0.5516    -0.4888 N.2     
   8 C8             4.5883    -0.0143    -0.5223 C.2     
   9 N9             4.8457     1.2525    -0.0976 N.am    
  10 C10            3.8520     2.0303     0.3915 C.2     
  11 C11            5.7326    -0.8355    -1.0582 C.3     
  12 C12            6.5732     2.4381    -1.3014 C.ar    
  13 C13            6.1506     1.7564    -0.1679 C.ar    
  14 C14            7.8605     2.9341    -1.3674 C.ar    
  15 C15            8.7284     2.7520    -0.3064 C.ar    
  16 C16            8.3105     2.0740     0.8241 C.ar    
  17 C17            7.0244     1.5756     0.8962 C.ar    
  18 N18            5.5525    -2.2364    -0.6694 N.am    
  19 O19            4.0680     3.1655     0.7746 O.2     
  20 C20            5.7654    -0.7299    -2.5842 C.3     
  21 F21            1.5696     3.4358     1.3739 F       
  22 C22            6.9986    -1.4603    -3.1196 C.3     
  23 C23            6.6212    -3.0520    -0.5739 C.2     
  24 O24            7.7341    -2.6253    -0.8102 O.2     
  25 O25            6.4557    -4.3395    -0.2166 O.3     
  26 C26            7.6510    -5.1596    -0.1339 C.3     
  27 C27            8.6068    -4.5650     0.9023 C.3     
  28 C28            7.2668    -6.5807     0.2829 C.3     
  29 C29            8.3391    -5.1973    -1.5000 C.3     
  30 H30           -0.6863     2.1274     1.3286 H       
  31 H31           -0.9882    -0.1746     0.5287 H       
  32 H32            0.9141    -1.4608    -0.3331 H       
  33 H33            6.6710    -0.4623    -0.6480 H       
  34 H34            5.8973     2.5764    -2.1324 H       
  35 H35            8.1898     3.4643    -2.2488 H       
  36 H36            9.7347     3.1405    -0.3605 H       
  37 H37            8.9907     1.9331     1.6510 H       
  38 H38            6.6987     1.0458     1.7791 H       
  39 H39            4.6641    -2.5770    -0.4808 H       
  40 H40            4.8655    -1.1838    -2.9992 H       
  41 H41            5.8101     0.3197    -2.8749 H       
  42 H42            6.9539    -2.5099    -2.8289 H       
  43 H43            7.0219    -1.3851    -4.2068 H       
  44 H44            7.8984    -1.0063    -2.7046 H       
  45 H45            8.1166    -4.5382     1.8755 H       
  46 H46            9.5042    -5.1806     0.9644 H       
  47 H47            8.8806    -3.5526     0.6054 H       
  48 H48            6.5858    -7.0043    -0.4553 H       
  49 H49            8.1641    -7.1963     0.3450 H       
  50 H50            6.7766    -6.5538     1.2561 H       
  51 H51            8.6129    -4.1849    -1.7969 H       
  52 H52            9.2365    -5.8129    -1.4379 H       
  53 H53            7.6582    -5.6209    -2.2382 H       
@<TRIPOS>BOND
   1    1    2 ar
   2    1    6 ar
   3    1   30 1
   4    2    3 ar
   5    2   31 1
   6    3    4 ar
   7    3   32 1
   8    4    5 ar
   9    4    7 1
  10    5    6 ar
  11    5   10 1
  12    6   21 1
  13    7    8 2
  14    8    9 1
  15    8   11 1
  16    9   10 am
  17    9   13 1
  18   10   19 2
  19   11   18 1
  20   11   20 1
  21   11   33 1
  22   12   13 ar
  23   12   14 ar
  24   12   34 1
  25   13   17 ar
  26   14   15 ar
  27   14   35 1
  28   15   16 ar
  29   15   36 1
  30   16   17 ar
  31   16   37 1
  32   17   38 1
  33   18   23 am
  34   18   39 1
  35   20   22 1
  36   20   40 1
  37   20   41 1
  38   22   42 1
  39   22   43 1
  40   22   44 1
  41   23   24 2
  42   23   25 1
  43   25   26 1
  44   26   27 1
  45   26   28 1
  46   26   29 1
  47   27   45 1
  48   27   46 1
  49   27   47 1
  50   28   48 1
  51   28   49 1
  52   28   50 1
  53   29   51 1
  54   29   52 1
  55   29   53 1

#	End of record

