#	Name: ASD03731146
#	Creating user name:	WinNT
#	Creation time:	15. 06. 2019 20:45

#	Modifying user name:	WinNT
#	Modification time:	15. 06. 2019 20:45

#	Program:	/corina/corina34_cracker 3.40 0067  02.08.2006

@<TRIPOS>MOLECULE
ASD03731146
  47   50    0    0    0
SMALL
NO_CHARGES


@<TRIPOS>ATOM
   1 O1            -0.0175     1.4361     0.0099 O.3     
   2 C2             0.0021    -0.0041     0.0020 C.3     
   3 C3             1.3451    -0.3163    -0.6721 C.3     
   4 C4             2.1587     0.9226    -0.4098 C.ar    
   5 C5             1.2615     1.9062     0.0003 C.ar    
   6 C6             1.7486     3.1673     0.3277 C.ar    
   7 C7             3.1031     3.4386     0.2364 C.ar    
   8 C8             3.9847     2.4527    -0.1831 C.ar    
   9 C9             3.5059     1.1961    -0.5043 C.ar    
  10 N10            2.1574    -2.4046    -1.1246 N.am    
  11 C11            1.9841    -1.5482    -0.0982 C.2     
  12 C12            1.1866    -0.5961    -2.1370 C.ar    
  13 C13            0.6757     0.1246    -3.1937 C.ar    
  14 C14            0.6686    -0.4210    -4.4651 C.ar    
  15 C15            1.1757    -1.6909    -4.6725 C.ar    
  16 C16            1.6886    -2.4163    -3.6174 C.ar    
  17 C17            1.6999    -1.8755    -2.3339 C.ar    
  18 O18            2.2851    -1.7358     1.0617 O.2     
  19 O19            3.5704     4.6735     0.5581 O.3     
  20 C20            4.9788     4.8850     0.4413 C.3     
  21 F21            5.3751     4.6662    -0.8824 F       
  22 F22            5.2850     6.1997     0.8085 F       
  23 F23            5.6552     3.9960     1.2836 F       
  24 C24            2.7564    -3.7346    -0.9881 C.3     
  25 C25            1.6763    -4.7445    -0.6969 C.ar    
  26 C26            1.1153    -5.4634    -1.7357 C.ar    
  27 C27            0.1228    -6.3902    -1.4570 C.ar    
  28 C28           -0.2701    -6.5601    -0.1380 C.ar    
  29 C29            0.3364    -5.8053     0.8478 C.ar    
  30 N30            1.2813    -4.9359     0.5464 N.ar    
  31 H31           -0.0211    -0.3969     1.0185 H       
  32 H32           -0.8268    -0.3990    -0.5855 H       
  33 H33            1.0669     3.9386     0.6543 H       
  34 H34            5.0407     2.6661    -0.2586 H       
  35 H35            4.1899     0.4264    -0.8301 H       
  36 H36            0.2802     1.1161    -3.0296 H       
  37 H37            0.2674     0.1434    -5.2938 H       
  38 H38            1.1697    -2.1166    -5.6650 H       
  39 H39            2.0826    -3.4074    -3.7871 H       
  40 H40            3.2631    -4.0018    -1.9154 H       
  41 H41            3.4764    -3.7266    -0.1698 H       
  42 H42            1.4457    -5.3048    -2.7516 H       
  43 H43           -0.3339    -6.9660    -2.2484 H       
  44 H44           -1.0406    -7.2731     0.1155 H       
  45 H45            0.0361    -5.9317     1.8775 H       
  46 Cl46          10.6552    11.1997     6.8775 Cl      
  47 H47           10.6552    12.5697     6.8775 H       
@<TRIPOS>BOND
   1    1    2 1
   2    1    5 1
   3    2    3 1
   4    2   31 1
   5    2   32 1
   6    3    4 1
   7    3   11 1
   8    3   12 1
   9    4    5 ar
  10    4    9 ar
  11    5    6 ar
  12    6    7 ar
  13    6   33 1
  14    7    8 ar
  15    7   19 1
  16    8    9 ar
  17    8   34 1
  18    9   35 1
  19   10   11 am
  20   10   17 1
  21   10   24 1
  22   11   18 2
  23   12   13 ar
  24   12   17 ar
  25   13   14 ar
  26   13   36 1
  27   14   15 ar
  28   14   37 1
  29   15   16 ar
  30   15   38 1
  31   16   17 ar
  32   16   39 1
  33   19   20 1
  34   20   21 1
  35   20   22 1
  36   20   23 1
  37   24   25 1
  38   24   40 1
  39   24   41 1
  40   25   26 ar
  41   25   30 ar
  42   26   27 ar
  43   26   42 1
  44   27   28 ar
  45   27   43 1
  46   28   29 ar
  47   28   44 1
  48   29   30 ar
  49   29   45 1
  50   46   47 1

#	End of record

