#	Name: ASD05143117
#	Creating user name:	WinNT
#	Creation time:	15. 06. 2019 20:57

#	Modifying user name:	WinNT
#	Modification time:	15. 06. 2019 20:57

#	Program:	/corina/corina34_cracker 3.40 0067  02.08.2006

@<TRIPOS>MOLECULE
ASD05143117
 144  148    0    0    0
SMALL
NO_CHARGES


@<TRIPOS>ATOM
   1 C1             4.5004     3.8197     4.6897 C.2     
   2 C2             5.7147     3.5895     5.5520 C.3     
   3 N3             4.4749     4.8519     3.8234 N.am    
   4 O4             3.5481     3.0731     4.7717 O.2     
   5 C5             3.2945     5.0756     2.9852 C.3     
   6 C6             3.0543     3.8479     2.1044 C.3     
   7 C7             2.0916     5.3072     3.8630 C.2     
   8 C8             4.2347     3.6677     1.1477 C.3     
   9 C9             3.9945     2.4399     0.2669 C.3     
  10 N10            5.1247     2.2674    -0.6490 N.pl3   
  11 C11            5.1320     1.2226    -1.5427 C.2     
  12 N12            6.1927     1.0607    -2.4023 N.pl3   
  13 N13            4.1334     0.3856    -1.5749 N.2     
  14 O14            2.1006     4.9305     5.0158 O.2     
  15 N15            1.0059     5.9330     3.3670 N.am    
  16 C16           -0.1966     6.0748     4.1895 C.3     
  17 C17           -0.0770     7.3627     5.0078 C.3     
  18 C18            0.0233     7.0302     6.4978 C.3     
  19 C19            0.5540     8.2520     7.2534 C.3     
  20 N20           -0.5946     9.1266     7.5887 N.am    
  21 C21           -0.3329    10.4697     7.5826 C.2     
  22 C22           -1.4497    11.4217     7.9344 C.3     
  23 C23           -1.3246    12.6935     7.0963 C.3     
  24 C24           -2.5839    13.5432     7.2606 C.3     
  25 N25           -2.9283    14.1321     5.9544 N.am    
  26 C26           -2.3176    14.6498     8.2523 C.2     
  27 N27           -2.3582    14.3936     9.5749 N.am    
  28 O28           -2.0671    15.7694     7.8589 O.2     
  29 C29           -4.1206    13.7984     5.3990 C.2     
  30 O30           -4.8387    12.9719     5.9214 O.2     
  31 C31           -4.5483    14.4821     4.1315 C.3     
  32 N32           -5.4919    13.6190     3.3922 N.am    
  33 C33           -5.2390    15.8025     4.4805 C.3     
  34 C34           -4.9347    12.7140     2.5343 C.2     
  35 O35           -3.7267    12.5885     2.4798 O.2     
  36 C36           -5.8157    11.8898     1.6380 C.3     
  37 N37           -5.0395    10.8006     1.0088 N.am    
  38 C38           -6.9850    11.3091     2.4324 C.3     
  39 C39           -4.3205     9.9951     1.8215 C.2     
  40 O40           -4.3241    10.1614     3.0251 O.2     
  41 C41           -3.4760     8.8610     1.2719 C.3     
  42 C42           -5.5609    16.5513     3.2129 C.2     
  43 C43           -6.7496    16.3756     2.3750 C.ar    
  44 C44           -6.6125    17.2846     1.3103 C.ar    
  45 N45           -5.4253    17.9557     1.4995 N.pl3   
  46 C46           -4.8157    17.5100     2.6406 C.2     
  47 C47           -7.8731    15.5494     2.4456 C.ar    
  48 C48           -8.8349    15.6285     1.4785 C.ar    
  49 C49           -8.7041    16.5237     0.4254 C.ar    
  50 C50           -7.6044    17.3485     0.3368 C.ar    
  51 N51           -4.1165     7.6143     1.7381 N.am    
  52 C52           -2.0612     9.0231     1.8284 C.3     
  53 C53           -1.4394    10.2742     1.2634 C.ar    
  54 C54           -1.2565    11.3827     2.0722 C.ar    
  55 C55           -0.6850    12.5316     1.5516 C.ar    
  56 C56           -0.2980    12.5704     0.2257 C.ar    
  57 C57           -0.4813    11.4627    -0.5812 C.ar    
  58 C58           -1.0464    10.3134    -0.0612 C.ar    
  59 C59           -1.4180     6.1400     3.3145 C.2     
  60 O60           -2.4195     6.6804     3.7628 O.2     
  61 C61           -7.9352    10.5790     1.4811 C.3     
  62 C62           -9.1059     9.9976     2.2764 C.3     
  63 N63          -10.0157     9.2985     1.3655 N.pl3   
  64 C64          -11.1475     8.6915     1.8563 C.2     
  65 N65          -12.0014     8.0355     1.0014 N.pl3   
  66 N66          -11.4110     8.7380     3.1319 N.2     
  67 N67           -1.4539     5.6050     2.0845 N.am    
  68 C68           -2.2796     6.0495     0.9560 C.3     
  69 C69           -3.6521     6.3943     1.4259 C.2     
  70 O70           -4.4440     5.4627     1.5436 O.2     
  71 C71           -1.5747     3.7264     0.5760 C.3     
  72 C72           -2.3677     4.8841    -0.0485 C.3     
  73 C73           -0.7061     4.4145     1.6459 C.3     
  74 F74           -1.6356    11.3438     3.3684 F       
  75 O75            0.7696    10.8880     7.3020 O.2     
  76 H76            5.8859     4.4642     6.1795 H       
  77 H77            5.5519     2.7158     6.1831 H       
  78 H78            6.5848     3.4220     4.9171 H       
  79 H79            5.2382     5.4466     3.7550 H       
  80 H80            3.4573     5.9493     2.3541 H       
  81 H81            2.9579     2.9628     2.7332 H       
  82 H82            2.1386     3.9866     1.5295 H       
  83 H83            4.3311     4.5528     0.5189 H       
  84 H84            5.1503     3.5289     1.7226 H       
  85 H85            3.8980     1.5549     0.8958 H       
  86 H86            3.0788     2.5787    -0.3079 H       
  87 H87            5.8679     2.8903    -0.6250 H       
  88 H88            6.9359     1.6836    -2.3783 H       
  89 H89            6.1978     0.3236    -3.0328 H       
  90 H90            4.1385    -0.3515    -2.2054 H       
  91 H91            1.0213     6.2894     2.4649 H       
  92 H92           -0.2824     5.2279     4.8694 H       
  93 H93            0.8179     7.9009     4.6933 H       
  94 H94           -0.9533     7.9883     4.8367 H       
  95 H95           -0.9648     6.7658     6.8781 H       
  96 H96            0.7055     6.1928     6.6432 H       
  97 H97            1.0519     7.9328     8.1684 H       
  98 H98            1.2584     8.7929     6.6228 H       
  99 H99           -1.4728     8.7716     7.7990 H       
 100 H100          -2.4081    10.9434     7.7312 H       
 101 H101          -1.3886    11.6716     8.9948 H       
 102 H102          -0.4570    13.2647     7.4346 H       
 103 H103          -1.2010    12.4322     6.0452 H       
 104 H104          -3.4039    12.9230     7.6210 H       
 105 H105          -2.3232    14.7478     5.5046 H       
 106 H106          -2.5585    13.4982     9.8895 H       
 107 H107          -2.1870    15.1046    10.2121 H       
 108 H108          -3.6671    14.6872     3.5229 H       
 109 H109          -6.4538    13.7001     3.5122 H       
 110 H110          -6.1604    15.5977     5.0255 H       
 111 H111          -4.5765    16.4062     5.1008 H       
 112 H112          -6.2060    12.5384     0.8466 H       
 113 H113          -5.0414    10.6742     0.0429 H       
 114 H114          -6.6064    10.6082     3.1764 H       
 115 H115          -7.5207    12.1158     2.9327 H       
 116 H116          -3.4603     8.9081     0.1860 H       
 117 H117          -5.0751    18.6447     0.9133 H       
 118 H118          -3.8711    17.8705     3.0202 H       
 119 H119          -7.9812    14.8502     3.2615 H       
 120 H120          -9.7037    14.9893     1.5334 H       
 121 H121          -9.4726    16.5743    -0.3317 H       
 122 H122          -7.5119    18.0417    -0.4862 H       
 123 H123          -4.9211     7.6814     2.3142 H       
 124 H124          -2.1046     9.0978     2.9150 H       
 125 H125          -1.4590     8.1592     1.5473 H       
 126 H126          -0.5421    13.3971     2.1816 H       
 127 H127           0.1474    13.4665    -0.1806 H       
 128 H128          -0.1788    11.4940    -1.6175 H       
 129 H129          -1.1890     9.4487    -0.6924 H       
 130 H130          -8.3139    11.2798     0.7371 H       
 131 H131          -7.3996     9.7722     0.9808 H       
 132 H132          -8.7272     9.2968     3.0204 H       
 133 H133          -9.6416    10.8044     2.7767 H       
 134 H134          -9.8197     9.2640     0.4162 H       
 135 H135         -11.8053     8.0009     0.0521 H       
 136 H136         -12.7999     7.6072     1.3477 H       
 137 H137         -12.2095     8.3097     3.4782 H       
 138 H138          -1.7984     6.8875     0.4533 H       
 139 H139          -2.2512     3.0089     1.0389 H       
 140 H140          -0.9470     3.2380    -0.1668 H       
 141 H141          -3.4052     4.5943    -0.2061 H       
 142 H142          -1.9149     5.1721    -0.9996 H       
 143 H143           0.2430     4.7115     1.2082 H       
 144 H144          -0.5559     3.7426     2.4867 H       
@<TRIPOS>BOND
   1    1    2 1
   2    1    3 am
   3    1    4 2
   4    2   76 1
   5    2   77 1
   6    2   78 1
   7    3    5 1
   8    3   79 1
   9    5    6 1
  10    5    7 1
  11    5   80 1
  12    6    8 1
  13    6   81 1
  14    6   82 1
  15    7   14 2
  16    7   15 am
  17    8    9 1
  18    8   83 1
  19    8   84 1
  20    9   10 1
  21    9   85 1
  22    9   86 1
  23   10   11 1
  24   10   87 1
  25   11   12 1
  26   11   13 2
  27   12   88 1
  28   12   89 1
  29   13   90 1
  30   15   16 1
  31   15   91 1
  32   16   17 1
  33   16   59 1
  34   16   92 1
  35   17   18 1
  36   17   93 1
  37   17   94 1
  38   18   19 1
  39   18   95 1
  40   18   96 1
  41   19   20 1
  42   19   97 1
  43   19   98 1
  44   20   21 am
  45   20   99 1
  46   21   22 1
  47   21   75 2
  48   22   23 1
  49   22  100 1
  50   22  101 1
  51   23   24 1
  52   23  102 1
  53   23  103 1
  54   24   25 1
  55   24   26 1
  56   24  104 1
  57   25   29 am
  58   25  105 1
  59   26   27 am
  60   26   28 2
  61   27  106 1
  62   27  107 1
  63   29   30 2
  64   29   31 1
  65   31   32 1
  66   31   33 1
  67   31  108 1
  68   32   34 am
  69   32  109 1
  70   33   42 1
  71   33  110 1
  72   33  111 1
  73   34   35 2
  74   34   36 1
  75   36   37 1
  76   36   38 1
  77   36  112 1
  78   37   39 am
  79   37  113 1
  80   38   61 1
  81   38  114 1
  82   38  115 1
  83   39   40 2
  84   39   41 1
  85   41   51 1
  86   41   52 1
  87   41  116 1
  88   42   43 1
  89   42   46 2
  90   43   44 ar
  91   43   47 ar
  92   44   45 1
  93   44   50 ar
  94   45   46 1
  95   45  117 1
  96   46  118 1
  97   47   48 ar
  98   47  119 1
  99   48   49 ar
 100   48  120 1
 101   49   50 ar
 102   49  121 1
 103   50  122 1
 104   51   69 am
 105   51  123 1
 106   52   53 1
 107   52  124 1
 108   52  125 1
 109   53   54 ar
 110   53   58 ar
 111   54   55 ar
 112   54   74 1
 113   55   56 ar
 114   55  126 1
 115   56   57 ar
 116   56  127 1
 117   57   58 ar
 118   57  128 1
 119   58  129 1
 120   59   60 2
 121   59   67 am
 122   61   62 1
 123   61  130 1
 124   61  131 1
 125   62   63 1
 126   62  132 1
 127   62  133 1
 128   63   64 1
 129   63  134 1
 130   64   65 1
 131   64   66 2
 132   65  135 1
 133   65  136 1
 134   66  137 1
 135   67   68 1
 136   67   73 1
 137   68   69 1
 138   68   72 1
 139   68  138 1
 140   69   70 2
 141   71   72 1
 142   71   73 1
 143   71  139 1
 144   71  140 1
 145   72  141 1
 146   72  142 1
 147   73  143 1
 148   73  144 1

#	End of record

