#	Name: ASD03091567
#	Creating user name:	WinNT
#	Creation time:	15. 06. 2019 20:30

#	Modifying user name:	WinNT
#	Modification time:	15. 06. 2019 20:30

#	Program:	/corina/corina34_cracker 3.40 0067  02.08.2006

@<TRIPOS>MOLECULE
ASD03091567
  44   46    0    0    0
SMALL
NO_CHARGES


@<TRIPOS>ATOM
   1 C1             0.0348     1.2324    -0.2081 C.2     
   2 C2            -0.0589    -0.0921     0.0326 C.2     
   3 N3            -1.2849    -0.5184     0.2455 N.2     
   4 C4            -2.2348     0.3668     0.1993 C.2     
   5 S5            -1.5883     1.9136    -0.1347 S.3     
   6 N6            -3.5767     0.0972     0.3982 N.3     
   7 C7            -3.7922    -1.3312     0.6713 C.3     
   8 C8            -4.1249     0.9236     1.4834 C.3     
   9 C9            -5.6218     0.6371     1.6294 C.3     
  10 O10           -5.8139    -0.7607     1.8632 O.3     
  11 C11           -5.2924    -1.5951     0.8254 C.3     
  12 C12           -5.5181    -3.0640     1.1890 C.3     
  13 C13           -6.1818     1.4342     2.8092 C.3     
  14 C14            1.2785     1.9797    -0.4788 C.ar    
  15 C15            1.3620     2.8739    -1.5547 C.ar    
  16 C16            2.4069     1.8194     0.3362 C.ar    
  17 C17            3.5471     2.5377     0.0469 C.ar    
  18 N18            3.5843     3.3661    -0.9802 N.ar    
  19 C19            2.5426     3.5508    -1.7701 C.ar    
  20 C20            1.1395    -1.0055     0.0555 C.3     
  21 N21            1.6048    -1.1682     1.4393 N.3     
  22 C22            4.7679     2.3754     0.9154 C.3     
  23 H23           -3.4017    -1.9230    -0.1566 H       
  24 H24           -3.2776    -1.6075     1.5916 H       
  25 H25           -3.6157     0.6833     2.4167 H       
  26 H26           -3.9773     1.9776     1.2484 H       
  27 H27           -6.1388     0.9276     0.7148 H       
  28 H28           -5.7999    -1.3695    -0.1125 H       
  29 H29           -6.5860    -3.2503     1.3023 H       
  30 H30           -5.1204    -3.6994     0.3976 H       
  31 H31           -5.0085    -3.2888     2.1260 H       
  32 H32           -6.0316     2.4992     2.6321 H       
  33 H33           -7.2475     1.2298     2.9126 H       
  34 H34           -5.6653     1.1415     3.7233 H       
  35 H35            0.5141     3.0297    -2.2052 H       
  36 H36            2.3835     1.1437     1.1784 H       
  37 H37            2.6184     4.2385    -2.5994 H       
  38 H38            0.8629    -1.9781    -0.3515 H       
  39 H39            1.9376    -0.5729    -0.5477 H       
  40 H40            0.8626    -1.5075     2.0328 H       
  41 H41            2.4083    -1.7770     1.4814 H       
  42 H42            5.3903     1.5723     0.5209 H       
  43 H43            5.3358     3.3057     0.9213 H       
  44 H44            4.4606     2.1309     1.9322 H       
@<TRIPOS>BOND
   1    1    2 2
   2    1   14 1
   3    1    5 1
   4    2    3 1
   5    2   20 1
   6    3    4 2
   7    4    5 1
   8    4    6 1
   9    6    7 1
  10    6    8 1
  11    7   11 1
  12    7   23 1
  13    7   24 1
  14    8    9 1
  15    8   25 1
  16    8   26 1
  17    9   10 1
  18    9   13 1
  19    9   27 1
  20   10   11 1
  21   11   12 1
  22   11   28 1
  23   12   29 1
  24   12   30 1
  25   12   31 1
  26   13   32 1
  27   13   33 1
  28   13   34 1
  29   14   15 ar
  30   14   16 ar
  31   15   19 ar
  32   15   35 1
  33   16   17 ar
  34   16   36 1
  35   17   18 ar
  36   17   22 1
  37   18   19 ar
  38   19   37 1
  39   20   21 1
  40   20   38 1
  41   20   39 1
  42   21   40 1
  43   21   41 1
  44   22   42 1
  45   22   43 1
  46   22   44 1

#	End of record

