#	Name: ASD01812849
#	Creating user name:	WinNT
#	Creation time:	15. 06. 2019 19:29

#	Modifying user name:	WinNT
#	Modification time:	15. 06. 2019 19:29

#	Program:	/corina/corina34_cracker 3.40 0067  02.08.2006

@<TRIPOS>MOLECULE
ASD01812849
  50   54    0    0    0
SMALL
NO_CHARGES


@<TRIPOS>ATOM
   1 N1             0.0026     1.3185    -0.2222 N.ar    
   2 C2             0.0318     0.0058    -0.3459 C.ar    
   3 C3             1.2339    -0.6842    -0.3685 C.ar    
   4 C4             2.4113     0.0206    -0.2598 C.ar    
   5 C5             2.3613     1.4133    -0.1297 C.ar    
   6 C6             1.1072     2.0396    -0.1146 C.ar    
   7 C7             3.8681    -0.3578    -0.2443 C.3     
   8 N8             4.6151     0.8978    -0.0991 N.am    
   9 C9             3.7395     1.9165    -0.0335 C.2     
  10 C10            6.0736     1.0207    -0.0356 C.3     
  11 C11            6.6240     1.1964    -1.4274 C.ar    
  12 C12            6.7705     2.4671    -1.9548 C.ar    
  13 C13            7.2737     2.6349    -3.2283 C.ar    
  14 C14            7.6353     1.5193    -3.9850 C.ar    
  15 C15            7.4850     0.2403    -3.4471 C.ar    
  16 C16            6.9858     0.0867    -2.1701 C.ar    
  17 O17            1.0258     3.3856     0.0104 O.3     
  18 O18            4.0442     3.0874     0.0875 O.2     
  19 C19           -0.2010     3.9612    -0.0793 C.ar    
  20 C20           -1.0060     4.0591     1.0515 C.ar    
  21 C21           -2.2525     4.6431     0.9636 C.ar    
  22 C22           -2.7051     5.1367    -0.2630 C.ar    
  23 C23           -1.8923     5.0361    -1.3953 C.ar    
  24 C24           -0.6467     4.4558    -1.2984 C.ar    
  25 C25           -3.9986     5.7434    -0.3593 C.1     
  26 F26           -0.5665     3.5813     2.2363 F       
  27 C27            8.5707     0.7025    -6.2090 C.2     
  28 C28            8.1748     1.6917    -5.3507 C.2     
  29 O29            8.3754     2.8526    -5.9997 O.3     
  30 N30            8.8288     2.6684    -7.1051 N.2     
  31 C31            8.9958     1.4013    -7.3576 C.2     
  32 C32            9.5370     0.7999    -8.6290 C.3     
  33 N33           -5.0247     6.2248    -0.4358 N.1     
  34 H34           -0.8959    -0.5405    -0.4307 H       
  35 H35            1.2466    -1.7594    -0.4695 H       
  36 H36            4.0753    -1.0169     0.5988 H       
  37 H37            4.1380    -0.8485    -1.1795 H       
  38 H38            6.3392     1.8858     0.5721 H       
  39 H39            6.4950     0.1200     0.4107 H       
  40 H40            6.4899     3.3295    -1.3683 H       
  41 H41            7.3873     3.6273    -3.6390 H       
  42 H42            7.7626    -0.6270    -4.0277 H       
  43 H43            6.8734    -0.9023    -1.7509 H       
  44 H44           -2.8776     4.7185     1.8410 H       
  45 H45           -2.2391     5.4161    -2.3449 H       
  46 H46           -0.0171     4.3816    -2.1728 H       
  47 H47            8.5637    -0.3647    -6.0436 H       
  48 H48            8.7149     0.6059    -9.3179 H       
  49 H49           10.2402     1.4943    -9.0888 H       
  50 H50           10.0474    -0.1355    -8.3999 H       
@<TRIPOS>BOND
   1    1    2 ar
   2    1    6 ar
   3    2    3 ar
   4    2   34 1
   5    3    4 ar
   6    3   35 1
   7    4    7 1
   8    4    5 ar
   9    5    6 ar
  10    5    9 1
  11    6   17 1
  12    7    8 1
  13    7   36 1
  14    7   37 1
  15    8    9 am
  16    8   10 1
  17    9   18 2
  18   10   11 1
  19   10   38 1
  20   10   39 1
  21   11   12 ar
  22   11   16 ar
  23   12   13 ar
  24   12   40 1
  25   13   14 ar
  26   13   41 1
  27   14   15 ar
  28   14   28 1
  29   15   16 ar
  30   15   42 1
  31   16   43 1
  32   17   19 1
  33   19   20 ar
  34   19   24 ar
  35   20   21 ar
  36   20   26 1
  37   21   22 ar
  38   21   44 1
  39   22   23 ar
  40   22   25 1
  41   23   24 ar
  42   23   45 1
  43   24   46 1
  44   25   33 3
  45   27   28 2
  46   27   31 1
  47   27   47 1
  48   28   29 1
  49   29   30 1
  50   30   31 2
  51   31   32 1
  52   32   48 1
  53   32   49 1
  54   32   50 1

#	End of record

