#	Name: ASD05790044
#	Creating user name:	WinNT
#	Creation time:	15. 06. 2019 21:03

#	Modifying user name:	WinNT
#	Modification time:	15. 06. 2019 21:03

#	Program:	/corina/corina34_cracker 3.40 0067  02.08.2006

@<TRIPOS>MOLECULE
ASD05790044
  45   48    0    0    0
SMALL
NO_CHARGES


@<TRIPOS>ATOM
   1 C1            -0.2641     1.8824    -0.8142 C.2     
   2 C2            -0.1687     0.4074    -0.8121 C.ar    
   3 C3             0.7130    -0.2394    -1.6800 C.ar    
   4 C4             0.7975    -1.6161    -1.6726 C.ar    
   5 C5             0.0106    -2.3561    -0.8075 C.ar    
   6 C6            -0.8652    -1.7214     0.0551 C.ar    
   7 C7            -0.9556    -0.3447     0.0616 C.ar    
   8 O8             0.4992     2.5399    -1.4945 O.2     
   9 N9            -1.2010     2.4982    -0.0661 N.am    
  10 C10            1.5703     0.5647    -2.6231 C.3     
  11 C11           -1.2231     3.8918     0.0168 C.ar    
  12 C12           -2.4361     4.5603     0.1414 C.ar    
  13 C13           -2.4614     5.9352     0.2239 C.ar    
  14 C14           -1.2669     6.6578     0.1823 C.ar    
  15 C15           -0.0504     5.9834     0.0572 C.ar    
  16 C16           -0.0316     4.6080    -0.0195 C.ar    
  17 O17           -2.3933     8.8912     0.3922 O.3     
  18 C18           -1.2904     8.1323     0.2701 C.2     
  19 N19           -0.2386     8.9151     0.2420 N.2     
  20 C20           -0.6524    10.1952     0.3463 C.2     
  21 C21           -2.0059    10.1807     0.4406 C.2     
  22 C22            0.2147    11.3994     0.3559 C.ar    
  23 C23            1.5990    11.2661     0.2502 C.ar    
  24 C24            2.4007    12.3907     0.2599 C.ar    
  25 C25            1.8328    13.6468     0.3746 C.ar    
  26 C26            0.4606    13.7841     0.4801 C.ar    
  27 C27           -0.3512    12.6676     0.4649 C.ar    
  28 Cl28           2.3128     9.6901     0.1074 Cl      
  29 H29            1.4789    -2.1178    -2.3437 H       
  30 H30            0.0803    -3.4338    -0.8060 H       
  31 H31           -1.4764    -2.3047     0.7278 H       
  32 H32           -1.6365     0.1498     0.7386 H       
  33 H33           -1.8598     1.9732     0.4147 H       
  34 H34            2.4609     0.9112    -2.0988 H       
  35 H35            1.8652    -0.0587    -3.4672 H       
  36 H36            1.0049     1.4233    -2.9856 H       
  37 H37           -3.3595     4.0009     0.1731 H       
  38 H38           -3.4038     6.4538     0.3202 H       
  39 H39            0.8750     6.5393     0.0248 H       
  40 H40            0.9091     4.0857    -0.1122 H       
  41 H41           -2.6515    11.0412     0.5360 H       
  42 H42            3.4728    12.2892     0.1781 H       
  43 H43            2.4633    14.5236     0.3821 H       
  44 H44            0.0229    14.7674     0.5702 H       
  45 H45           -1.4228    12.7769     0.5422 H       
@<TRIPOS>BOND
   1    1    2 1
   2    1    8 2
   3    1    9 am
   4    2    3 ar
   5    2    7 ar
   6    3    4 ar
   7    3   10 1
   8    4    5 ar
   9    4   29 1
  10    5    6 ar
  11    5   30 1
  12    6    7 ar
  13    6   31 1
  14    7   32 1
  15    9   11 1
  16    9   33 1
  17   10   34 1
  18   10   35 1
  19   10   36 1
  20   11   12 ar
  21   11   16 ar
  22   12   13 ar
  23   12   37 1
  24   13   14 ar
  25   13   38 1
  26   14   15 ar
  27   14   18 1
  28   15   16 ar
  29   15   39 1
  30   16   40 1
  31   17   18 1
  32   17   21 1
  33   18   19 2
  34   19   20 1
  35   20   21 2
  36   20   22 1
  37   21   41 1
  38   22   23 ar
  39   22   27 ar
  40   23   24 ar
  41   23   28 1
  42   24   25 ar
  43   24   42 1
  44   25   26 ar
  45   25   43 1
  46   26   27 ar
  47   26   44 1
  48   27   45 1

#	End of record

