#	Name: ASD01883262
#	Creating user name:	WinNT
#	Creation time:	15. 06. 2019 19:46

#	Modifying user name:	WinNT
#	Modification time:	15. 06. 2019 19:46

#	Program:	/corina/corina34_cracker 3.40 0067  02.08.2006

@<TRIPOS>MOLECULE
ASD01883262
  46   47    0    0    0
SMALL
NO_CHARGES


@<TRIPOS>ATOM
   1 N1            -0.0323     1.3544     0.4059 N.am    
   2 C2            -0.0096     0.0201     0.2316 C.2     
   3 C3            -1.2248    -0.7051     0.1679 C.2     
   4 C4            -2.4372    -0.0025     0.2899 C.2     
   5 C5            -2.3943     1.3943     0.4706 C.2     
   6 C6            -1.2032     2.0314     0.5287 C.2     
   7 O7             1.0558    -0.5639     0.1284 O.2     
   8 C8            -1.2190    -2.1250    -0.0175 C.1     
   9 N9            -1.2144    -3.2515    -0.1646 N.1     
  10 C10            1.2323     2.0911     0.4704 C.3     
  11 C11            1.6371     2.5337    -0.9372 C.3     
  12 C12            2.9579     3.3030    -0.8698 C.3     
  13 C13            3.4262     3.6374    -2.2875 C.3     
  14 C14            2.7540     4.5982    -0.0812 C.3     
  15 C15           -3.7297    -0.7148     0.2292 C.ar    
  16 C16           -4.5623    -0.7513     1.3511 C.ar    
  17 C17           -5.7664    -1.4159     1.2915 C.ar    
  18 C18           -6.1546    -2.0515     0.1157 C.ar    
  19 C19           -5.3274    -2.0173    -1.0031 C.ar    
  20 C20           -4.1252    -1.3486    -0.9518 C.ar    
  21 N21           -7.3725    -2.7232     0.0587 N.am    
  22 S22           -8.7861    -1.8670    -0.0472 S.o2    
  23 C23           -8.6675    -0.9918    -1.6317 C.3     
  24 O24           -9.7966    -2.8645    -0.1030 O.2     
  25 O25           -8.7218    -0.9491     1.0356 O.2     
  26 H26           -3.3123     1.9551     0.5664 H       
  27 H27           -1.1827     3.1023     0.6675 H       
  28 H28            1.1099     2.9682     1.1059 H       
  29 H29            2.0073     1.4468     0.8856 H       
  30 H30            1.7595     1.6566    -1.5727 H       
  31 H31            0.8621     3.1779    -1.3524 H       
  32 H32            3.7105     2.6902    -0.3736 H       
  33 H33            2.6736     4.2503    -2.7836 H       
  34 H34            4.3671     4.1855    -2.2395 H       
  35 H35            3.5714     2.7147    -2.8493 H       
  36 H36            2.0015     5.2110    -0.5774 H       
  37 H37            2.4204     4.3600     0.9287 H       
  38 H38            3.6950     5.1463    -0.0332 H       
  39 H39           -4.2613    -0.2589     2.2639 H       
  40 H40           -6.4103    -1.4445     2.1581 H       
  41 H41           -5.6312    -2.5118    -1.9139 H       
  42 H42           -3.4839    -1.3222    -1.8204 H       
  43 H43           -7.3932    -3.6927     0.0811 H       
  44 H44           -8.4791    -1.7095    -2.4301 H       
  45 H45           -9.6025    -0.4672    -1.8279 H       
  46 H46           -7.8494    -0.2727    -1.5892 H       
@<TRIPOS>BOND
   1    1    2 am
   2    1   10 1
   3    1    6 1
   4    2    3 1
   5    2    7 2
   6    3    4 2
   7    3    8 1
   8    4    5 1
   9    4   15 1
  10    5    6 2
  11    5   26 1
  12    6   27 1
  13    8    9 3
  14   10   11 1
  15   10   28 1
  16   10   29 1
  17   11   12 1
  18   11   30 1
  19   11   31 1
  20   12   13 1
  21   12   14 1
  22   12   32 1
  23   13   33 1
  24   13   34 1
  25   13   35 1
  26   14   36 1
  27   14   37 1
  28   14   38 1
  29   15   16 ar
  30   15   20 ar
  31   16   17 ar
  32   16   39 1
  33   17   18 ar
  34   17   40 1
  35   18   19 ar
  36   18   21 1
  37   19   20 ar
  38   19   41 1
  39   20   42 1
  40   21   22 am
  41   21   43 1
  42   22   23 1
  43   22   24 2
  44   22   25 2
  45   23   44 1
  46   23   45 1
  47   23   46 1

#	End of record

