#	Name: ASD06152002
#	Creating user name:	WinNT
#	Creation time:	15. 06. 2019 21:05

#	Modifying user name:	WinNT
#	Modification time:	15. 06. 2019 21:05

#	Program:	/corina/corina34_cracker 3.40 0067  02.08.2006

@<TRIPOS>MOLECULE
ASD06152002
  86   91    0    0    0
SMALL
NO_CHARGES


@<TRIPOS>ATOM
   1 C1            -0.1568     2.6313     1.4750 C.ar    
   2 C2            -0.2995     1.2704     1.3114 C.ar    
   3 C3             0.8172     0.4670     1.0774 C.ar    
   4 C4             2.0842     1.0501     1.0101 C.ar    
   5 C5             2.2218     2.4408     1.1785 C.ar    
   6 C6             1.0977     3.2230     1.4098 C.ar    
   7 C7             3.2842     0.2325     0.7655 C.2     
   8 C8             4.6173     0.8700     0.7066 C.2     
   9 C9             4.7503     2.1917     0.8670 C.2     
  10 C10            3.5672     3.0449     1.1069 C.2     
  11 C11            5.8247     0.0108     0.4664 C.3     
  12 C12            7.0605     0.5956     1.1106 C.2     
  13 C13            7.1917     1.8801     1.2604 C.2     
  14 C14            6.1073     2.8306     0.8078 C.3     
  15 C15            8.1010    -0.3997     1.5691 C.3     
  16 C16            9.4508     0.2752     1.7889 C.3     
  17 C17            9.2214     1.5037     2.6797 C.3     
  18 C18            8.4161     2.5183     1.8746 C.3     
  19 O19            0.6729    -0.8710     0.9169 O.3     
  20 C20           -0.6540    -1.3950     0.9994 C.3     
  21 O21            3.1789    -0.9687     0.6121 O.2     
  22 O22            3.7020     4.2445     1.2457 O.2     
  23 O23            6.3739     3.2359    -0.5364 O.3     
  24 O24            5.5870    -1.2899     1.0083 O.3     
  25 O25            8.4920     1.1246     3.8486 O.3     
  26 C26           10.5467     2.1021     3.0753 C.2     
  27 C27           10.5936     3.2550     4.0446 C.3     
  28 N28           11.6327     1.6310     2.5880 N.2     
  29 N29           12.8648     2.1873     2.9558 N.am    
  30 C30           14.0082     1.6913     2.4428 C.2     
  31 O31           13.9703     0.7611     1.6608 O.2     
  32 C32           15.3080     2.2782     2.8308 C.ar    
  33 C33           16.4941     1.7669     2.3013 C.ar    
  34 C34           17.7039     2.3193     2.6677 C.ar    
  35 C35           17.7434     3.3777     3.5579 C.ar    
  36 C36           16.5715     3.8890     4.0868 C.ar    
  37 C37           15.3546     3.3500     3.7240 C.ar    
  38 C38            7.6402    -1.0386     2.8808 C.3     
  39 C39            8.6977    -2.0339     3.3624 C.3     
  40 C40            8.2969    -2.5803     4.7351 C.3     
  41 C41            9.3286    -3.6201     5.1832 C.3     
  42 C42            9.4204    -4.7219     4.1231 C.3     
  43 C43            9.7778    -4.0928     2.7740 C.3     
  44 O44            8.7951    -3.1135     2.4313 O.3     
  45 C45           11.1512    -3.4254     2.8701 C.3     
  46 N46           10.6399    -2.9763     5.3377 N.3     
  47 O47           10.4320    -5.6599     4.4956 O.3     
  48 H48           -1.0289     3.2436     1.6511 H       
  49 H49           -1.2810     0.8232     1.3649 H       
  50 H50            1.1992     4.2905     1.5385 H       
  51 H51            5.9909    -0.0773    -0.6073 H       
  52 H52            6.1144     3.7105     1.4511 H       
  53 H53            8.2092    -1.1773     0.8129 H       
  54 H54           10.1333    -0.4165     2.2826 H       
  55 H55            9.8682     0.5864     0.8313 H       
  56 H56            9.0438     2.9239     1.0811 H       
  57 H57            8.1043     3.3297     2.5322 H       
  58 H58           -0.6279    -2.4748     0.8536 H       
  59 H59           -1.0728    -1.1708     1.9804 H       
  60 H60           -1.2734    -0.9389     0.2271 H       
  61 H61            5.7198     3.8487    -0.8994 H       
  62 H62            6.2840    -1.9309     0.8125 H       
  63 H63            8.3133     1.8562     4.4552 H       
  64 H64           10.6696     2.8715     5.0621 H       
  65 H65           11.4603     3.8787     3.8257 H       
  66 H66            9.6848     3.8488     3.9472 H       
  67 H67           12.8950     2.9294     3.5797 H       
  68 H68           16.4647     0.9405     1.6066 H       
  69 H69           18.6223     1.9244     2.2590 H       
  70 H70           18.6932     3.8066     3.8414 H       
  71 H71           16.6093     4.7151     4.7814 H       
  72 H72           14.4406     3.7500     4.1376 H       
  73 H73            7.5018    -0.2627     3.6338 H       
  74 H74            6.6970    -1.5604     2.7191 H       
  75 H75            9.6619    -1.5313     3.4386 H       
  76 H76            8.2650    -1.7642     5.4569 H       
  77 H77            7.3143    -3.0474     4.6685 H       
  78 H78            9.0196    -4.0540     6.1342 H       
  79 H79            8.4605    -5.2323     4.0441 H       
  80 H80            9.8025    -4.8669     2.0070 H       
  81 H81           11.8677    -4.1281     3.2957 H       
  82 H82           11.4812    -3.1281     1.8747 H       
  83 H83           11.0833    -2.5445     3.5085 H       
  84 H84           10.6025    -2.2405     6.0271 H       
  85 H85           11.3503    -3.6540     5.5703 H       
  86 H86           10.5449    -6.3867     3.8678 H       
@<TRIPOS>BOND
   1    1    2 ar
   2    1    6 ar
   3    1   48 1
   4    2    3 ar
   5    2   49 1
   6    3    4 ar
   7    3   19 1
   8    4    5 ar
   9    4    7 1
  10    5    6 ar
  11    5   10 1
  12    6   50 1
  13    7    8 1
  14    7   21 2
  15    8    9 2
  16    8   11 1
  17    9   10 1
  18    9   14 1
  19   10   22 2
  20   11   12 1
  21   11   24 1
  22   11   51 1
  23   12   13 2
  24   12   15 1
  25   13   14 1
  26   13   18 1
  27   14   23 1
  28   14   52 1
  29   15   16 1
  30   15   38 1
  31   15   53 1
  32   16   17 1
  33   16   54 1
  34   16   55 1
  35   17   18 1
  36   17   25 1
  37   17   26 1
  38   18   56 1
  39   18   57 1
  40   19   20 1
  41   20   58 1
  42   20   59 1
  43   20   60 1
  44   23   61 1
  45   24   62 1
  46   25   63 1
  47   26   27 1
  48   26   28 2
  49   27   64 1
  50   27   65 1
  51   27   66 1
  52   28   29 1
  53   29   30 am
  54   29   67 1
  55   30   31 2
  56   30   32 1
  57   32   33 ar
  58   32   37 ar
  59   33   34 ar
  60   33   68 1
  61   34   35 ar
  62   34   69 1
  63   35   36 ar
  64   35   70 1
  65   36   37 ar
  66   36   71 1
  67   37   72 1
  68   38   39 1
  69   38   73 1
  70   38   74 1
  71   39   40 1
  72   39   44 1
  73   39   75 1
  74   40   41 1
  75   40   76 1
  76   40   77 1
  77   41   42 1
  78   41   46 1
  79   41   78 1
  80   42   43 1
  81   42   47 1
  82   42   79 1
  83   43   44 1
  84   43   45 1
  85   43   80 1
  86   45   81 1
  87   45   82 1
  88   45   83 1
  89   46   84 1
  90   46   85 1
  91   47   86 1

#	End of record

