#	Name: ASD00310043
#	Creating user name:	WinNT
#	Creation time:	15. 06. 2019 18:33

#	Modifying user name:	WinNT
#	Modification time:	15. 06. 2019 18:33

#	Program:	/corina/corina34_cracker 3.40 0067  02.08.2006

@<TRIPOS>MOLECULE
ASD00310043
  26   26    0    0    0
SMALL
NO_CHARGES


@<TRIPOS>ATOM
   1 C1            -0.0184     1.5028     0.0103 C.2     
   2 C2             0.0021    -0.0041     0.0020 C.3     
   3 O3             1.0236     2.1234     0.0037 O.2     
   4 N4            -1.1946     2.1607     0.0195 N.am    
   5 C5            -1.2145     3.6256     0.0275 C.3     
   6 C6            -2.6637     4.1159     0.0371 C.3     
   7 O7            -3.2916     3.7226     1.2590 O.3     
   8 C8            -4.5913     4.0822     1.4285 C.ar    
   9 C9            -5.2626     3.7332     2.5912 C.ar    
  10 C10           -6.5836     4.0997     2.7615 C.ar    
  11 C11           -7.2372     4.8139     1.7733 C.ar    
  12 C12           -6.5696     5.1630     0.6130 C.ar    
  13 C13           -5.2467     4.8038     0.4415 C.ar    
  14 Br14          -9.0459     5.3132     2.0086 Br      
  15 H15            1.0345    -0.3534    -0.0097 H       
  16 H16           -0.4983    -0.3791     0.8948 H       
  17 H17           -0.5153    -0.3696    -0.8850 H       
  18 H18           -2.0280     1.6644     0.0207 H       
  19 H19           -0.7014     3.9910     0.9171 H       
  20 H20           -0.7098     4.0007    -0.8628 H       
  21 H21           -2.6802     5.2026    -0.0465 H       
  22 H22           -3.2008     3.6786    -0.8046 H       
  23 H23           -4.7529     3.1750     3.3626 H       
  24 H24           -7.1066     3.8281     3.6666 H       
  25 H25           -7.0816     5.7206    -0.1572 H       
  26 H26           -4.7246     5.0804    -0.4626 H       
@<TRIPOS>BOND
   1    1    2 1
   2    1    3 2
   3    1    4 am
   4    2   15 1
   5    2   16 1
   6    2   17 1
   7    4    5 1
   8    4   18 1
   9    5    6 1
  10    5   19 1
  11    5   20 1
  12    6    7 1
  13    6   21 1
  14    6   22 1
  15    7    8 1
  16    8    9 ar
  17    8   13 ar
  18    9   10 ar
  19    9   23 1
  20   10   11 ar
  21   10   24 1
  22   11   12 ar
  23   11   14 1
  24   12   13 ar
  25   12   25 1
  26   13   26 1

#	End of record

