#	Name: ASD00841567
#	Creating user name:	WinNT
#	Creation time:	15. 06. 2019 18:42

#	Modifying user name:	WinNT
#	Modification time:	15. 06. 2019 18:42

#	Program:	/corina/corina34_cracker 3.40 0067  02.08.2006

@<TRIPOS>MOLECULE
ASD00841567
  88   93    0    0    0
SMALL
NO_CHARGES


@<TRIPOS>ATOM
   1 C1            -0.0141     1.3804     0.0277 C.ar    
   2 C2             0.0034    -0.0065     0.0122 C.ar    
   3 C3             1.2150    -0.6826    -0.0058 C.ar    
   4 C4             2.4002     0.0266    -0.0081 C.ar    
   5 C5             2.3801     1.4092     0.0079 C.ar    
   6 C6             1.1743     2.0852     0.0253 C.ar    
   7 C7             1.2376    -2.1893    -0.0222 C.3     
   8 C8             0.4952    -2.7180    -1.2310 C.2     
   9 N9             2.6176    -2.6810    -0.0116 N.am    
  10 C10            3.4640    -2.3347    -1.0016 C.2     
  11 N11            4.7595    -2.7012    -0.9396 N.am    
  12 O12            3.0589    -1.6916    -1.9506 O.2     
  13 C13            5.2900    -3.3772     0.2522 C.3     
  14 C14            6.5163    -2.6065     0.7513 C.3     
  15 C15            7.5242    -2.4641    -0.3915 C.3     
  16 C16            6.8900    -1.6727    -1.5377 C.3     
  17 C17            5.6666    -2.4379    -2.0650 C.3     
  18 N18            8.7158    -1.7544     0.0925 N.3     
  19 C19            9.7556    -1.7027    -0.9447 C.3     
  20 C20           10.9455    -0.8889    -0.4304 C.3     
  21 N21           11.4625    -1.5056     0.7993 N.3     
  22 C22           10.4227    -1.5573     1.8365 C.3     
  23 C23            9.2328    -2.3710     1.3222 C.3     
  24 H24           11.8344    -2.4251     0.6140 H       
  25 O25            0.7758    -2.5160    -2.3934 O.2     
  26 N26           -0.5321    -3.4536    -0.7747 N.am    
  27 C27            0.4653    -2.7438     1.1533 C.ar    
  28 C28           -0.5804    -3.4907     0.6160 C.ar    
  29 C29            0.6279    -2.6294     2.5106 C.ar    
  30 C30           -0.2666    -3.2702     3.3753 C.ar    
  31 C31           -1.3202    -4.0228     2.8424 C.ar    
  32 C32           -1.4721    -4.1310     1.4766 C.ar    
  33 F33           -2.1892    -4.6452     3.6686 F       
  34 C34           -0.9821    -5.8413    -2.0671 C.ar    
  35 C35            0.1978    -5.9965    -2.7798 C.ar    
  36 C36           -1.6549    -6.9527    -1.5968 C.ar    
  37 C37           -1.1529    -8.2184    -1.8356 C.ar    
  38 C38            0.0232    -8.3758    -2.5457 C.ar    
  39 C39            0.6994    -7.2680    -3.0184 C.ar    
  40 H40            0.4134    -9.3656    -2.7309 H       
  41 O41            0.8613    -4.9049    -3.2438 O.3     
  42 C42            2.0696    -5.1401    -3.9695 C.3     
  43 C43            2.6697    -3.8028    -4.4081 C.3     
  44 S44           -1.6184    -4.2281    -1.7557 S.o2    
  45 O45           -2.7997    -4.4044    -0.9857 O.2     
  46 O46           -1.5967    -3.5411    -2.9994 O.2     
  47 O47           -1.1642    -0.7020     0.0150 O.3     
  48 C48           -3.5736    -0.8887     0.0346 C.3     
  49 C49           -2.3730     0.0598     0.0343 C.3     
  50 C50           -0.1054    -3.1576     4.7937 C.1     
  51 N51            0.0225    -3.0682     5.9189 N.1     
  52 H52           -0.9559     1.9090     0.0372 H       
  53 H53            3.3435    -0.4991    -0.0221 H       
  54 H54            3.3080     1.9619     0.0067 H       
  55 H55            1.1612     3.1650     0.0378 H       
  56 H56            2.9221    -3.2557     0.7080 H       
  57 H57            4.5280    -3.3957     1.0314 H       
  58 H58            5.5785    -4.3966    -0.0040 H       
  59 H59            6.2104    -1.6173     1.0920 H       
  60 H60            6.9764    -3.1499     1.5766 H       
  61 H61            7.8109    -3.4533    -0.7483 H       
  62 H62            6.5806    -0.6924    -1.1754 H       
  63 H63            7.6161    -1.5516    -2.3416 H       
  64 H64            5.9884    -3.3794    -2.5099 H       
  65 H65            5.1529    -1.8344    -2.8133 H       
  66 H66           10.0828    -2.7149    -1.1823 H       
  67 H67            9.3524    -1.2307    -1.8406 H       
  68 H68           11.7298    -0.8736    -1.1871 H       
  69 H69           10.6242     0.1309    -0.2185 H       
  70 H70           10.8259    -2.0292     2.7325 H       
  71 H71           10.0955    -0.5451     2.0742 H       
  72 H72            8.4485    -2.3863     2.0789 H       
  73 H73            9.5541    -3.3908     1.1103 H       
  74 H74            1.4444    -2.0467     2.9109 H       
  75 H75           -2.2865    -4.7129     1.0709 H       
  76 H76           -2.5736    -6.8324    -1.0419 H       
  77 H77           -1.6799    -9.0859    -1.4665 H       
  78 H78            1.6175    -7.3914    -3.5736 H       
  79 H79            2.7802    -5.6654    -3.3314 H       
  80 H80            1.8531    -5.7470    -4.8487 H       
  81 H81            3.5913    -3.9822    -4.9616 H       
  82 H82            1.9590    -3.2775    -5.0461 H       
  83 H83            2.8861    -3.1959    -3.5289 H       
  84 H84           -4.4957    -0.3076     0.0493 H       
  85 H85           -3.5482    -1.5072    -0.8626 H       
  86 H86           -3.5322    -1.5269     0.9172 H       
  87 H87           -2.3984     0.6783     0.9315 H       
  88 H88           -2.4144     0.6981    -0.8483 H       
@<TRIPOS>BOND
   1    1    2 ar
   2    1    6 ar
   3    1   52 1
   4    2    3 ar
   5    2   47 1
   6    3    4 ar
   7    3    7 1
   8    4    5 ar
   9    4   53 1
  10    5    6 ar
  11    5   54 1
  12    6   55 1
  13    7    8 1
  14    7    9 1
  15    7   27 1
  16    8   25 2
  17    8   26 am
  18    9   10 am
  19    9   56 1
  20   10   11 am
  21   10   12 2
  22   11   13 1
  23   11   17 1
  24   13   14 1
  25   13   57 1
  26   13   58 1
  27   14   15 1
  28   14   59 1
  29   14   60 1
  30   15   16 1
  31   15   18 1
  32   15   61 1
  33   16   17 1
  34   16   62 1
  35   16   63 1
  36   17   64 1
  37   17   65 1
  38   18   19 1
  39   18   23 1
  40   19   20 1
  41   19   66 1
  42   19   67 1
  43   20   21 1
  44   20   68 1
  45   20   69 1
  46   21   22 1
  47   21   24 1
  48   22   23 1
  49   22   70 1
  50   22   71 1
  51   23   72 1
  52   23   73 1
  53   26   44 am
  54   26   28 1
  55   27   28 ar
  56   27   29 ar
  57   28   32 ar
  58   29   30 ar
  59   29   74 1
  60   30   31 ar
  61   30   50 1
  62   31   32 ar
  63   31   33 1
  64   32   75 1
  65   34   35 ar
  66   34   36 ar
  67   34   44 1
  68   35   41 1
  69   35   39 ar
  70   36   37 ar
  71   36   76 1
  72   37   38 ar
  73   37   77 1
  74   38   39 ar
  75   38   40 1
  76   39   78 1
  77   41   42 1
  78   42   43 1
  79   42   79 1
  80   42   80 1
  81   43   81 1
  82   43   82 1
  83   43   83 1
  84   44   45 2
  85   44   46 2
  86   47   49 1
  87   48   49 1
  88   48   84 1
  89   48   85 1
  90   48   86 1
  91   49   87 1
  92   49   88 1
  93   50   51 3

#	End of record

