#	Name: ASD01141018
#	Creating user name:	WinNT
#	Creation time:	15. 06. 2019 19:01

#	Modifying user name:	WinNT
#	Modification time:	15. 06. 2019 19:01

#	Program:	/corina/corina34_cracker 3.40 0067  02.08.2006

@<TRIPOS>MOLECULE
ASD01141018
  44   46    0    0    0
SMALL
NO_CHARGES


@<TRIPOS>ATOM
   1 P1            -0.0180     1.4758     0.0102 P.3     
   2 O2             0.0021    -0.0041     0.0020 O.2     
   3 O3             1.4924     2.0330    -0.0013 O.3     
   4 O4            -0.7967     2.0091    -1.2942 O.3     
   5 N5            -0.7856     2.0047     1.3595 N.pl3   
   6 C6            -0.9297     3.3748     1.5892 C.ar    
   7 C7            -1.5796     3.8245     2.7316 C.ar    
   8 C8            -1.7200     5.1800     2.9560 C.ar    
   9 C9            -1.2144     6.0892     2.0449 C.ar    
  10 C10           -0.5668     5.6449     0.9067 C.ar    
  11 C11           -0.4184     4.2909     0.6788 C.ar    
  12 C12            3.4843    -0.0733    -2.1768 C.2     
  13 C13            3.3167     0.5364    -3.5388 C.3     
  14 C14            2.1270     1.4990    -3.5498 C.3     
  15 C15            2.2589     2.4512    -2.3521 C.3     
  16 N16            2.2459     1.6316    -1.1310 N.pl3   
  17 N17            2.9927     0.4463    -1.1059 N.2     
  18 C18            4.2441    -1.3321    -2.0606 C.ar    
  19 C19            4.4225    -1.9312    -0.8115 C.ar    
  20 C20            5.1338    -3.1087    -0.7104 C.ar    
  21 C21            5.6704    -3.6961    -1.8425 C.ar    
  22 C22            5.4979    -3.1079    -3.0830 C.ar    
  23 C23            4.7836    -1.9337    -3.1999 C.ar    
  24 C24           -2.0843     1.5269    -1.6833 C.3     
  25 H25           -1.1396     1.3660     1.9979 H       
  26 H26           -1.9751     3.1150     3.4433 H       
  27 H27           -2.2255     5.5303     3.8437 H       
  28 H28           -1.3258     7.1486     2.2226 H       
  29 H29           -0.1731     6.3577     0.1972 H       
  30 H30            0.0913     3.9447    -0.2082 H       
  31 H31            4.2231     1.0804    -3.8043 H       
  32 H32            3.1473    -0.2545    -4.2694 H       
  33 H33            2.1293     2.0733    -4.4762 H       
  34 H34            1.1983     0.9342    -3.4680 H       
  35 H35            3.1975     3.0014    -2.4185 H       
  36 H36            1.4207     3.1478    -2.3392 H       
  37 H37            4.0049    -1.4735     0.0730 H       
  38 H38            5.2726    -3.5731     0.2547 H       
  39 H39            6.2267    -4.6178    -1.7574 H       
  40 H40            5.9198    -3.5717    -3.9625 H       
  41 H41            4.6460    -1.4780    -4.1694 H       
  42 H42           -2.0302     0.4538    -1.8667 H       
  43 H43           -2.8019     1.7236    -0.8868 H       
  44 H44           -2.4030     2.0354    -2.5932 H       
@<TRIPOS>BOND
   1    1    2 2
   2    1    3 1
   3    1    4 1
   4    1    5 1
   5    3   16 1
   6    4   24 1
   7    5    6 1
   8    5   25 1
   9    6    7 ar
  10    6   11 ar
  11    7    8 ar
  12    7   26 1
  13    8    9 ar
  14    8   27 1
  15    9   10 ar
  16    9   28 1
  17   10   11 ar
  18   10   29 1
  19   11   30 1
  20   12   13 1
  21   12   17 2
  22   12   18 1
  23   13   14 1
  24   13   31 1
  25   13   32 1
  26   14   15 1
  27   14   33 1
  28   14   34 1
  29   15   16 1
  30   15   35 1
  31   15   36 1
  32   16   17 1
  33   18   19 ar
  34   18   23 ar
  35   19   20 ar
  36   19   37 1
  37   20   21 ar
  38   20   38 1
  39   21   22 ar
  40   21   39 1
  41   22   23 ar
  42   22   40 1
  43   23   41 1
  44   24   42 1
  45   24   43 1
  46   24   44 1

#	End of record

