#	Name: ASD01883140
#	Creating user name:	WinNT
#	Creation time:	15. 06. 2019 19:45

#	Modifying user name:	WinNT
#	Modification time:	15. 06. 2019 19:45

#	Program:	/corina/corina34_cracker 3.40 0067  02.08.2006

@<TRIPOS>MOLECULE
ASD01883140
  48   50    0    0    0
SMALL
NO_CHARGES


@<TRIPOS>ATOM
   1 N1            -0.0162     1.3417     0.0094 N.am    
   2 C2             0.0021    -0.0041     0.0020 C.2     
   3 C3            -1.2167    -0.7275     0.0102 C.2     
   4 C4            -2.4257    -0.0118     0.0261 C.2     
   5 C5            -2.3786     1.3953     0.0332 C.2     
   6 C6            -1.1848     2.0318     0.0299 C.2     
   7 O7             1.0656    -0.6000    -0.0121 O.2     
   8 C8            -1.2158    -2.1595     0.0021 C.1     
   9 N9            -1.2152    -3.2954    -0.0044 N.1     
  10 C10            1.2511     2.0766     0.0013 C.3     
  11 C11            1.6785     2.3402    -1.4440 C.3     
  12 C12            3.0021     3.1077    -1.4525 C.3     
  13 C13            4.1048     2.2294    -0.8581 C.3     
  14 C14            3.3665     3.4801    -2.8911 C.3     
  15 C15           -3.7230    -0.7231     0.0347 C.ar    
  16 C16           -4.0806    -1.5135     1.1287 C.ar    
  17 C17           -5.2911    -2.1773     1.1370 C.ar    
  18 C18           -6.1549    -2.0636     0.0652 C.ar    
  19 C19           -5.8091    -1.2771    -1.0334 C.ar    
  20 C20           -4.5939    -0.6012    -1.0470 C.ar    
  21 C21           -6.7390    -1.1573    -2.1838 C.ar    
  22 C22           -7.9592    -1.8297    -2.1694 C.ar    
  23 C23           -8.8205    -1.7144    -3.2418 C.ar    
  24 C24           -8.4739    -0.9334    -4.3295 C.ar    
  25 C25           -7.2638    -0.2637    -4.3490 C.ar    
  26 C26           -6.3975    -0.3674    -3.2796 C.ar    
  27 H27           -3.2952     1.9664     0.0450 H       
  28 H28           -1.1613     3.1116     0.0354 H       
  29 H29            1.1239     3.0260     0.5214 H       
  30 H30            2.0167     1.4863     0.5046 H       
  31 H31            1.8057     1.3908    -1.9642 H       
  32 H32            0.9129     2.9306    -1.9474 H       
  33 H33            2.8998     4.0151    -0.8572 H       
  34 H34            5.0477     2.7762    -0.8642 H       
  35 H35            3.8452     1.9641     0.1668 H       
  36 H36            4.2071     1.3221    -1.4534 H       
  37 H37            2.5808     4.1058    -3.3145 H       
  38 H38            4.3094     4.0269    -2.8971 H       
  39 H39            3.4688     2.5727    -3.4864 H       
  40 H40           -3.4091    -1.6060     1.9695 H       
  41 H41           -5.5636    -2.7882     1.9848 H       
  42 H42           -7.1004    -2.5854     0.0778 H       
  43 H43           -4.3223     0.0089    -1.8957 H       
  44 H44           -8.2305    -2.4404    -1.3209 H       
  45 H45           -9.7666    -2.2352    -3.2317 H       
  46 H46           -9.1505    -0.8465    -5.1668 H       
  47 H47           -6.9980     0.3445    -5.2010 H       
  48 H48           -5.4529     0.1560    -3.2958 H       
@<TRIPOS>BOND
   1    1    2 am
   2    1   10 1
   3    1    6 1
   4    2    3 1
   5    2    7 2
   6    3    4 2
   7    3    8 1
   8    4    5 1
   9    4   15 1
  10    5    6 2
  11    5   27 1
  12    6   28 1
  13    8    9 3
  14   10   11 1
  15   10   29 1
  16   10   30 1
  17   11   12 1
  18   11   31 1
  19   11   32 1
  20   12   13 1
  21   12   14 1
  22   12   33 1
  23   13   34 1
  24   13   35 1
  25   13   36 1
  26   14   37 1
  27   14   38 1
  28   14   39 1
  29   15   16 ar
  30   15   20 ar
  31   16   17 ar
  32   16   40 1
  33   17   18 ar
  34   17   41 1
  35   18   19 ar
  36   18   42 1
  37   19   20 ar
  38   19   21 1
  39   20   43 1
  40   21   22 ar
  41   21   26 ar
  42   22   23 ar
  43   22   44 1
  44   23   24 ar
  45   23   45 1
  46   24   25 ar
  47   24   46 1
  48   25   26 ar
  49   25   47 1
  50   26   48 1

#	End of record

