#	Name: ASD01813643
#	Creating user name:	WinNT
#	Creation time:	15. 06. 2019 19:30

#	Modifying user name:	WinNT
#	Modification time:	15. 06. 2019 19:30

#	Program:	/corina/corina34_cracker 3.40 0067  02.08.2006

@<TRIPOS>MOLECULE
ASD01813643
  43   46    0    0    0
SMALL
NO_CHARGES


@<TRIPOS>ATOM
   1 C1             0.0979     1.4754     0.3560 C.ar    
   2 C2             0.0799     0.0882     0.3482 C.ar    
   3 C3             1.2501    -0.6307     0.2176 C.ar    
   4 C4             2.4672     0.0383     0.0917 C.ar    
   5 C5             2.4807     1.4430     0.1001 C.ar    
   6 C6             1.2891     2.1559     0.2330 C.ar    
   7 N7             3.6443    -0.6677    -0.0386 N.pl3   
   8 C8             4.8373    -0.0728    -0.1610 C.2     
   9 C9             4.9774     1.3006    -0.1658 C.2     
  10 C10            3.7745     2.1383    -0.0339 C.2     
  11 O11            3.8448     3.3548    -0.0328 O.2     
  12 C12            6.3052     1.9159    -0.3014 C.2     
  13 O13            6.4289     3.2582    -0.3048 O.3     
  14 O14            7.2919     1.2142    -0.4105 O.2     
  15 C15            3.5871    -2.1316    -0.0427 C.3     
  16 C16            3.4445    -2.6248    -1.4595 C.ar    
  17 C17            4.5598    -2.7692    -2.2637 C.ar    
  18 N18            4.4483    -3.1999    -3.5040 N.ar    
  19 C19            3.2704    -3.5105    -4.0290 C.ar    
  20 C20            2.1049    -3.3888    -3.2753 C.ar    
  21 C21            2.1931    -2.9437    -1.9678 C.ar    
  22 F22            1.2170    -1.9813     0.2121 F       
  23 C23            3.1934    -3.9911    -5.4304 C.ar    
  24 C24            4.3540    -4.1153    -6.1913 C.ar    
  25 C25            4.2775    -4.5640    -7.4968 C.ar    
  26 C26            3.0496    -4.8898    -8.0484 C.ar    
  27 C27            1.8933    -4.7679    -7.2958 C.ar    
  28 C28            1.9609    -4.3250    -5.9878 C.ar    
  29 F29            5.4022    -4.6844    -8.2356 F       
  30 F30            0.6981    -5.0866    -7.8391 F       
  31 H31           -0.8269     2.0243     0.4546 H       
  32 H32           -0.8602    -0.4345     0.4458 H       
  33 H33            1.3005     3.2358     0.2390 H       
  34 H34            5.7197    -0.6878    -0.2589 H       
  35 H35            7.3224     3.6165    -0.3964 H       
  36 H36            4.5033    -2.5323     0.3910 H       
  37 H37            2.7314    -2.4634     0.5454 H       
  38 H38            5.5355    -2.5255    -1.8701 H       
  39 H39            1.1465    -3.6417    -3.7042 H       
  40 H40            1.3070    -2.8393    -1.3591 H       
  41 H41            5.3119    -3.8612    -5.7620 H       
  42 H42            2.9935    -5.2397    -9.0686 H       
  43 H43            1.0588    -4.2306    -5.4016 H       
@<TRIPOS>BOND
   1    1    2 ar
   2    1    6 ar
   3    1   31 1
   4    2    3 ar
   5    2   32 1
   6    3    4 ar
   7    3   22 1
   8    4    5 ar
   9    4    7 1
  10    5    6 ar
  11    5   10 1
  12    6   33 1
  13    7    8 1
  14    7   15 1
  15    8    9 2
  16    8   34 1
  17    9   10 1
  18    9   12 1
  19   10   11 2
  20   12   13 1
  21   12   14 2
  22   13   35 1
  23   15   16 1
  24   15   36 1
  25   15   37 1
  26   16   17 ar
  27   16   21 ar
  28   17   18 ar
  29   17   38 1
  30   18   19 ar
  31   19   20 ar
  32   19   23 1
  33   20   21 ar
  34   20   39 1
  35   21   40 1
  36   23   24 ar
  37   23   28 ar
  38   24   25 ar
  39   24   41 1
  40   25   26 ar
  41   25   29 1
  42   26   27 ar
  43   26   42 1
  44   27   28 ar
  45   27   30 1
  46   28   43 1

#	End of record

