#	Name: ASD01680127
#	Creating user name:	WinNT
#	Creation time:	15. 06. 2019 19:22

#	Modifying user name:	WinNT
#	Modification time:	15. 06. 2019 19:22

#	Program:	/corina/corina34_cracker 3.40 0067  02.08.2006

@<TRIPOS>MOLECULE
ASD01680127
  85   87    0    0    0
SMALL
NO_CHARGES


@<TRIPOS>ATOM
   1 C1            -0.2634     1.5758     0.0887 C.2     
   2 C2            -0.1529     0.0736     0.0412 C.3     
   3 C3            -0.8957    -0.4537    -1.1881 C.3     
   4 O4             0.7346     2.2562     0.0584 O.2     
   5 O5            -1.4708     2.1581     0.1592 O.3     
   6 N6             1.2587    -0.3099    -0.0394 N.am    
   7 C7             1.9921    -0.4208     1.0858 C.2     
   8 O8             1.4836    -0.2030     2.1651 O.2     
   9 C9             3.4442    -0.8153     1.0030 C.3     
  10 C10            4.0397    -0.8678     2.4114 C.3     
  11 C11            3.2784    -1.8973     3.2489 C.3     
  12 C12            3.3960    -3.2750     2.5938 C.3     
  13 C13            2.8006    -3.2225     1.1854 C.3     
  14 C14            3.5618    -2.1930     0.3479 C.3     
  15 C15            4.2054     0.2142     0.1654 C.3     
  16 N16           -0.6887    -1.8996    -1.3007 N.am    
  17 C17           -1.2528    -2.5841    -2.3155 C.2     
  18 O18           -1.9318    -2.0031    -3.1354 O.2     
  19 C19           -1.0400    -4.0715    -2.4313 C.3     
  20 O20           -1.7337    -4.5640    -3.5794 O.3     
  21 N21           -3.8823    -6.6539    -4.0075 N.am    
  22 C22           -2.7392    -6.7479    -3.0813 C.3     
  23 C23           -1.5962    -5.9719    -3.7820 C.3     
  24 C24           -1.8322    -6.3454    -5.2693 C.3     
  25 C25           -3.3704    -6.4232    -5.3662 C.3     
  26 C26           -3.7763    -7.5822    -6.2789 C.3     
  27 N27           -3.3736    -7.2838    -7.6555 N.pl3   
  28 C28           -3.5447    -8.2378    -8.6519 C.ar    
  29 C29           -4.0990    -9.4740    -8.3351 C.ar    
  30 C30           -4.2635   -10.4138    -9.3363 C.ar    
  31 C31           -3.8667   -10.0848   -10.6259 C.ar    
  32 C32           -3.3239    -8.8393   -10.8692 C.ar    
  33 N33           -3.1837    -7.9600    -9.8951 N.ar    
  34 C34           -5.1813    -6.7665    -3.6661 C.2     
  35 O35           -6.0450    -6.5808    -4.4970 O.2     
  36 C36           -5.5604    -7.1232    -2.2518 C.3     
  37 C37           -7.0845    -7.1859    -2.1328 C.3     
  38 C38           -7.6274    -8.2490    -3.0900 C.3     
  39 C39           -7.4695    -7.5481    -0.6970 C.3     
  40 C40           -7.6807    -5.8236    -2.4925 C.3     
  41 H41           -0.5942    -0.3519     0.9425 H       
  42 H42           -1.9608    -0.2460    -1.0859 H       
  43 H43           -0.5137     0.0387    -2.0824 H       
  44 H44           -1.4911     3.1245     0.1875 H       
  45 H45            1.6654    -0.4841    -0.9026 H       
  46 H46            5.0899    -1.1531     2.3514 H       
  47 H47            3.9559     0.1137     2.8780 H       
  48 H48            3.7026    -1.9347     4.2523 H       
  49 H49            2.2281    -1.6119     3.3088 H       
  50 H50            4.4463    -3.5604     2.5339 H       
  51 H51            2.8537    -4.0085     3.1905 H       
  52 H52            2.8843    -4.2040     0.7188 H       
  53 H53            1.7503    -2.9372     1.2454 H       
  54 H54            3.1376    -2.1556    -0.6555 H       
  55 H55            4.6121    -2.4784     0.2880 H       
  56 H56            4.1217     1.1957     0.6321 H       
  57 H57            5.2557    -0.0711     0.1055 H       
  58 H58            3.7813     0.2516    -0.8379 H       
  59 H59           -0.1458    -2.3644    -0.6449 H       
  60 H60            0.0252    -4.2792    -2.5335 H       
  61 H61           -1.4220    -4.5639    -1.5370 H       
  62 H62           -2.9848    -6.2818    -2.1270 H       
  63 H63           -2.4554    -7.7899    -2.9336 H       
  64 H64           -0.6212    -6.3202    -3.4410 H       
  65 H65           -1.4430    -5.5693    -5.9283 H       
  66 H66           -1.3819    -7.3108    -5.5006 H       
  67 H67           -3.7651    -5.4853    -5.7569 H       
  68 H68           -3.2841    -8.4961    -5.9463 H       
  69 H69           -4.8573    -7.7159    -6.2374 H       
  70 H70           -2.9876    -6.4206    -7.8717 H       
  71 H71           -4.3965    -9.6968    -7.3210 H       
  72 H72           -4.6907   -11.3819    -9.1201 H       
  73 H73           -3.9814   -10.7964   -11.4301 H       
  74 H74           -3.0140    -8.5793   -11.8706 H       
  75 H75           -5.1357    -8.0937    -1.9956 H       
  76 H76           -5.1737    -6.3658    -1.5700 H       
  77 H77           -7.2027    -9.2196    -2.8337 H       
  78 H78           -8.7132    -8.2937    -3.0052 H       
  79 H79           -7.3532    -7.9910    -4.1129 H       
  80 H80           -7.0827    -6.7907    -0.0151 H       
  81 H81           -8.5553    -7.5928    -0.6122 H       
  82 H82           -7.0447    -8.5186    -0.4407 H       
  83 H83           -7.4064    -5.5656    -3.5155 H       
  84 H84           -8.7665    -5.8683    -2.4078 H       
  85 H85           -7.2939    -5.0662    -1.8107 H       
@<TRIPOS>BOND
   1    1    2 1
   2    1    4 2
   3    1    5 1
   4    2    3 1
   5    2    6 1
   6    2   41 1
   7    3   16 1
   8    3   42 1
   9    3   43 1
  10    5   44 1
  11    6    7 am
  12    6   45 1
  13    7    8 2
  14    7    9 1
  15    9   10 1
  16    9   14 1
  17    9   15 1
  18   10   11 1
  19   10   46 1
  20   10   47 1
  21   11   12 1
  22   11   48 1
  23   11   49 1
  24   12   13 1
  25   12   50 1
  26   12   51 1
  27   13   14 1
  28   13   52 1
  29   13   53 1
  30   14   54 1
  31   14   55 1
  32   15   56 1
  33   15   57 1
  34   15   58 1
  35   16   17 am
  36   16   59 1
  37   17   18 2
  38   17   19 1
  39   19   20 1
  40   19   60 1
  41   19   61 1
  42   20   23 1
  43   21   22 1
  44   21   25 1
  45   21   34 am
  46   22   23 1
  47   22   62 1
  48   22   63 1
  49   23   24 1
  50   23   64 1
  51   24   25 1
  52   24   65 1
  53   24   66 1
  54   25   26 1
  55   25   67 1
  56   26   27 1
  57   26   68 1
  58   26   69 1
  59   27   28 1
  60   27   70 1
  61   28   29 ar
  62   28   33 ar
  63   29   30 ar
  64   29   71 1
  65   30   31 ar
  66   30   72 1
  67   31   32 ar
  68   31   73 1
  69   32   33 ar
  70   32   74 1
  71   34   35 2
  72   34   36 1
  73   36   37 1
  74   36   75 1
  75   36   76 1
  76   37   38 1
  77   37   39 1
  78   37   40 1
  79   38   77 1
  80   38   78 1
  81   38   79 1
  82   39   80 1
  83   39   81 1
  84   39   82 1
  85   40   83 1
  86   40   84 1
  87   40   85 1

#	End of record

