#	Name: ASD07300762
#	Creating user name:	WinNT
#	Creation time:	15. 06. 2019 21:10

#	Modifying user name:	WinNT
#	Modification time:	15. 06. 2019 21:10

#	Program:	/corina/corina34_cracker 3.40 0067  02.08.2006

@<TRIPOS>MOLECULE
ASD07300762
  46   49    0    0    0
SMALL
NO_CHARGES


@<TRIPOS>ATOM
   1 C1            -0.0172     1.4140     0.0098 C.2     
   2 C2             0.0021    -0.0041     0.0020 C.2     
   3 N3             1.1808     2.0893     0.0020 N.pl3   
   4 N4             1.1598    -0.6390    -0.0124 N.2     
   5 C5             2.3145     0.0264    -0.0199 C.2     
   6 C6             2.3484     1.3776    -0.0130 C.2     
   7 N7            -0.9935     2.3044     0.0292 N.2     
   8 C8            -0.4747     3.5309     0.0279 C.2     
   9 C9             0.8879     3.4248     0.0120 C.2     
  10 C10           -2.4705    -2.8374     0.0114 C.ar    
  11 C11           -1.2650    -2.1662     0.0030 C.ar    
  12 C12           -1.2674    -0.7675     0.0105 C.ar    
  13 C13           -2.5017    -0.1094     0.0268 C.ar    
  14 C14           -3.6597    -0.8596     0.0347 C.ar    
  15 N15           -3.6128    -2.1779     0.0267 N.ar    
  16 C16           -1.2577     4.8184     0.0465 C.3     
  17 N17            2.8688     6.4283    -0.4646 N.pl3   
  18 N18            3.6177     5.7645     0.5144 N.2     
  19 C19            3.0217     4.6377     0.8017 C.2     
  20 C20            1.8602     4.5416     0.0087 C.2     
  21 C21            1.7954     5.6663    -0.7638 C.2     
  22 C22            3.1910     7.7286    -1.0576 C.3     
  23 C23            3.3564     8.7684     0.0524 C.3     
  24 C24            3.5693    10.1497    -0.5702 C.3     
  25 O25            4.4871     8.4296     0.8579 O.3     
  26 C26            4.3761     8.8463     2.2203 C.3     
  27 H27            3.2427    -0.5257    -0.0317 H       
  28 H28            3.2966     1.8946    -0.0196 H       
  29 H29           -2.4790    -3.9174     0.0011 H       
  30 H30           -0.3335    -2.7127    -0.0092 H       
  31 H31           -2.5475     0.9696     0.0334 H       
  32 H32           -4.6175    -0.3607     0.0473 H       
  33 H33           -1.4306     5.1236     1.0785 H       
  34 H34           -0.6940     5.5940    -0.4722 H       
  35 H35           -2.2146     4.6689    -0.4535 H       
  36 H36            3.3603     3.9069     1.5212 H       
  37 H37            1.0252     5.9031    -1.4829 H       
  38 H38            4.1196     7.6499    -1.6231 H       
  39 H39            2.3844     8.0338    -1.7242 H       
  40 H40            2.4601     8.7836     0.6725 H       
  41 H41            2.7069    10.4081    -1.1846 H       
  42 H42            3.6872    10.8905     0.2206 H       
  43 H43            4.4657    10.1344    -1.1903 H       
  44 H44            5.2735     8.5521     2.7645 H       
  45 H45            4.2653     9.9299     2.2609 H       
  46 H46            3.5047     8.3747     2.6746 H       
@<TRIPOS>BOND
   1    1    2 1
   2    1    3 1
   3    1    7 2
   4    2    4 2
   5    2   12 1
   6    3    6 1
   7    3    9 1
   8    4    5 1
   9    5    6 2
  10    5   27 1
  11    6   28 1
  12    7    8 1
  13    8    9 2
  14    8   16 1
  15    9   20 1
  16   10   11 ar
  17   10   15 ar
  18   10   29 1
  19   11   12 ar
  20   11   30 1
  21   12   13 ar
  22   13   14 ar
  23   13   31 1
  24   14   15 ar
  25   14   32 1
  26   16   33 1
  27   16   34 1
  28   16   35 1
  29   17   18 1
  30   17   21 1
  31   17   22 1
  32   18   19 2
  33   19   20 1
  34   19   36 1
  35   20   21 2
  36   21   37 1
  37   22   23 1
  38   22   38 1
  39   22   39 1
  40   23   24 1
  41   23   25 1
  42   23   40 1
  43   24   41 1
  44   24   42 1
  45   24   43 1
  46   25   26 1
  47   26   44 1
  48   26   45 1
  49   26   46 1

#	End of record

