#	Name: ASD03090674
#	Creating user name:	WinNT
#	Creation time:	15. 06. 2019 20:29

#	Modifying user name:	WinNT
#	Modification time:	15. 06. 2019 20:29

#	Program:	/corina/corina34_cracker 3.40 0067  02.08.2006

@<TRIPOS>MOLECULE
ASD03090674
  34   35    0    0    0
SMALL
NO_CHARGES


@<TRIPOS>ATOM
   1 N1            -0.0238     1.3533    -0.0079 N.am    
   2 C2             0.0686     0.2663    -0.7994 C.2     
   3 S3             1.4422     0.0488    -1.7977 S.2     
   4 N4            -0.9204    -0.6493    -0.8050 N.am    
   5 S5             0.4355    -2.0703    -2.7328 S.3     
   6 C6            -0.8781    -1.7119    -1.6989 C.2     
   7 N7            -1.8289    -2.5765    -1.8702 N.2     
   8 C8            -1.6197    -3.5251    -2.7642 C.2     
   9 C9            -0.4366    -3.4588    -3.3771 C.2     
  10 C10           -2.6356    -4.5960    -3.0683 C.3     
  11 F11           -3.8123    -4.3379    -2.3571 F       
  12 F12           -2.9113    -4.6013    -4.4398 F       
  13 F13           -2.1261    -5.8429    -2.6902 F       
  14 C14            1.0484     2.2507     0.0776 C.ar    
  15 C15            0.8134     3.6190     0.0440 C.ar    
  16 C16            1.8706     4.5029     0.1288 C.ar    
  17 C17            3.1675     4.0245     0.2475 C.ar    
  18 C18            3.4030     2.6581     0.2807 C.ar    
  19 C19            2.3459     1.7727     0.2017 C.ar    
  20 C20           -0.5952     4.1389    -0.0854 C.3     
  21 O21            4.2082     4.8956     0.3310 O.3     
  22 C22            5.5166     4.3337     0.4515 C.3     
  23 H23           -0.8343     1.5162     0.4996 H       
  24 H24           -1.6617    -0.5663    -0.1850 H       
  25 H25           -0.0763    -4.1378    -4.1357 H       
  26 H26            1.6881     5.5671     0.1023 H       
  27 H27            4.4128     2.2863     0.3728 H       
  28 H28            2.5290     0.7088     0.2320 H       
  29 H29           -1.0253     4.2738     0.9070 H       
  30 H30           -0.5830     5.0947    -0.6092 H       
  31 H31           -1.1960     3.4241    -0.6477 H       
  32 H32            5.5695     3.7268     1.3553 H       
  33 H33            5.7256     3.7101    -0.4177 H       
  34 H34            6.2526     5.1356     0.5087 H       
@<TRIPOS>BOND
   1    1    2 am
   2    1   14 1
   3    1   23 1
   4    2    3 2
   5    2    4 am
   6    4    6 1
   7    4   24 1
   8    5    6 1
   9    5    9 1
  10    6    7 2
  11    7    8 1
  12    8    9 2
  13    8   10 1
  14    9   25 1
  15   10   11 1
  16   10   12 1
  17   10   13 1
  18   14   15 ar
  19   14   19 ar
  20   15   16 ar
  21   15   20 1
  22   16   17 ar
  23   16   26 1
  24   17   18 ar
  25   17   21 1
  26   18   19 ar
  27   18   27 1
  28   19   28 1
  29   20   29 1
  30   20   30 1
  31   20   31 1
  32   21   22 1
  33   22   32 1
  34   22   33 1
  35   22   34 1

#	End of record

