#	Name: ASD01811726
#	Creating user name:	WinNT
#	Creation time:	15. 06. 2019 19:27

#	Modifying user name:	WinNT
#	Modification time:	15. 06. 2019 19:27

#	Program:	/corina/corina34_cracker 3.40 0067  02.08.2006

@<TRIPOS>MOLECULE
ASD01811726
  56   60    0    0    0
SMALL
NO_CHARGES


@<TRIPOS>ATOM
   1 C1            -0.0167     1.3805     0.0096 C.ar    
   2 C2             0.0021    -0.0041     0.0020 C.ar    
   3 C3             1.2075    -0.6836    -0.0127 C.ar    
   4 C4             2.3988     0.0118    -0.0203 C.ar    
   5 C5             2.3881     1.4079    -0.0132 C.ar    
   6 C6             1.1658     2.0836     0.0021 C.ar    
   7 C7            -1.2939    -0.7731     0.0103 C.3     
   8 C8             1.2188    -2.1905    -0.0199 C.3     
   9 C9             1.0853    -2.6871    -1.4364 C.ar    
  10 C10            2.2106    -2.8063    -2.2352 C.ar    
  11 C11            2.0922    -3.2611    -3.5356 C.ar    
  12 C12            0.8391    -3.5995    -4.0402 C.ar    
  13 C13           -0.2889    -3.4777    -3.2312 C.ar    
  14 C14           -0.1598    -3.0277    -1.9329 C.ar    
  15 F15            3.4252    -2.4774    -1.7433 F       
  16 C16            0.7054    -4.0879    -5.4356 C.2     
  17 N17            1.6953    -4.2572    -6.3304 N.2     
  18 N18            1.1900    -4.6956    -7.4289 N.2     
  19 N19           -0.0846    -4.8287    -7.3166 N.pl3   
  20 C20           -0.4459    -4.4611    -6.0666 C.2     
  21 C21           -0.9912    -5.3040    -8.3647 C.3     
  22 C22            3.4708     2.4102    -0.0183 C.2     
  23 N23            2.9565     3.6521    -0.0072 N.am    
  24 C24            1.4923     3.5561     0.0064 C.3     
  25 O25            4.6581     2.1501    -0.0300 O.2     
  26 C26            3.7301     4.8962    -0.0086 C.3     
  27 C27            3.9849     5.3366    -1.4515 C.3     
  28 O28            2.7472     5.6988    -2.0748 O.3     
  29 C29            2.7745     7.0847    -2.4514 C.3     
  30 C30            4.2764     7.4316    -2.6087 C.3     
  31 C31            4.8964     6.5826    -1.4655 C.3     
  32 H32           -0.9590     1.9081     0.0170 H       
  33 H33            3.3374    -0.5224    -0.0314 H       
  34 H34           -1.6162    -0.9530    -1.0154 H       
  35 H35           -1.1473    -1.7267     0.5176 H       
  36 H36           -2.0556    -0.1960     0.5345 H       
  37 H37            2.1570    -2.5488     0.4038 H       
  38 H38            0.3854    -2.5629     0.5758 H       
  39 H39            2.9695    -3.3534    -4.1587 H       
  40 H40           -1.2626    -3.7390    -3.6185 H       
  41 H41           -1.0341    -2.9333    -1.3060 H       
  42 H42           -1.4437    -4.4570    -5.6535 H       
  43 H43           -1.0869    -6.3878    -8.2983 H       
  44 H44           -1.9707    -4.8441    -8.2339 H       
  45 H45           -0.5905    -5.0338    -9.3417 H       
  46 H46            1.0774     4.0343    -0.8809 H       
  47 H47            1.0945     4.0255     0.9061 H       
  48 H48            3.1714     5.6720     0.5149 H       
  49 H49            4.6829     4.7321     0.4949 H       
  50 H50            4.4558     4.5261    -2.0077 H       
  51 H51            2.2516     7.2302    -3.3967 H       
  52 H52            2.3243     7.6979    -1.6708 H       
  53 H53            4.6530     7.1153    -3.5814 H       
  54 H54            4.4529     8.4952    -2.4481 H       
  55 H55            4.8424     7.1134    -0.5150 H       
  56 H56            5.9249     6.3083    -1.7000 H       
@<TRIPOS>BOND
   1    1    2 ar
   2    1    6 ar
   3    1   32 1
   4    2    3 ar
   5    2    7 1
   6    3    4 ar
   7    3    8 1
   8    4    5 ar
   9    4   33 1
  10    5    6 ar
  11    5   22 1
  12    6   24 1
  13    7   34 1
  14    7   35 1
  15    7   36 1
  16    8    9 1
  17    8   37 1
  18    8   38 1
  19    9   10 ar
  20    9   14 ar
  21   10   11 ar
  22   10   15 1
  23   11   12 ar
  24   11   39 1
  25   12   13 ar
  26   12   16 1
  27   13   14 ar
  28   13   40 1
  29   14   41 1
  30   16   17 1
  31   16   20 2
  32   17   18 2
  33   18   19 1
  34   19   20 1
  35   19   21 1
  36   20   42 1
  37   21   43 1
  38   21   44 1
  39   21   45 1
  40   22   23 am
  41   22   25 2
  42   23   24 1
  43   23   26 1
  44   24   46 1
  45   24   47 1
  46   26   27 1
  47   26   48 1
  48   26   49 1
  49   27   28 1
  50   27   31 1
  51   27   50 1
  52   28   29 1
  53   29   30 1
  54   29   51 1
  55   29   52 1
  56   30   31 1
  57   30   53 1
  58   30   54 1
  59   31   55 1
  60   31   56 1

#	End of record

