#	Name: ASD03731470
#	Creating user name:	WinNT
#	Creation time:	15. 06. 2019 20:45

#	Modifying user name:	WinNT
#	Modification time:	15. 06. 2019 20:45

#	Program:	/corina/corina34_cracker 3.40 0067  02.08.2006

@<TRIPOS>MOLECULE
ASD03731470
  59   64    0    0    0
SMALL
NO_CHARGES


@<TRIPOS>ATOM
   1 C1            -0.0179     1.4711     0.0101 C.2     
   2 C2             0.0021    -0.0041     0.0020 C.ar    
   3 C3             1.2231    -0.6924    -0.0133 C.ar    
   4 C4             1.2300    -2.0790    -0.0204 C.ar    
   5 C5             0.0386    -2.7773    -0.0123 C.ar    
   6 C6            -1.1699    -2.1008     0.0029 C.ar    
   7 C7            -1.1954    -0.7228     0.0154 C.ar    
   8 O8             1.0267     2.0934     0.0035 O.2     
   9 N9            -1.1942     2.1291     0.0193 N.am    
  10 O10            2.3926    -0.0052    -0.0217 O.3     
  11 C11            3.5969    -0.7743    -0.0373 C.3     
  12 F12            3.6236    -1.5757    -1.1837 F       
  13 F13            4.6998     0.0864    -0.0442 F       
  14 F14            3.6463    -1.5864     1.1007 F       
  15 C15           -1.2140     3.5939     0.0273 C.3     
  16 C16           -2.6633     4.0843     0.0369 C.3     
  17 C17           -2.6840     5.6141     0.0453 C.3     
  18 O18           -8.8975     2.7077     2.1987 O.3     
  19 C19          -10.3145     2.7612     2.4479 C.3     
  20 O20          -10.5197     4.0855     2.9742 O.3     
  21 C21           -9.5161     4.8477     2.4482 C.ar    
  22 C22           -8.5185     3.9999     1.9724 C.ar    
  23 C23           -9.3712     6.2187     2.3342 C.ar    
  24 C24           -8.2318     6.7609     1.7474 C.ar    
  25 C25           -7.2383     5.9041     1.2833 C.ar    
  26 C26           -7.3825     4.5366     1.3900 C.ar    
  27 O27           -7.9028     8.0656     1.5241 O.3     
  28 C28           -6.1399     6.7768     0.7376 C.3     
  29 C29           -6.4842     8.1652     1.2937 C.3     
  30 N30           -4.0717     6.0836     0.0544 N.am    
  31 C31           -4.7791     6.3191     1.1775 C.2     
  32 C32           -6.0966     6.7695    -0.7617 C.ar    
  33 C33           -7.0122     7.0824    -1.7415 C.ar    
  34 C34           -6.6638     6.9730    -3.0759 C.ar    
  35 C35           -5.3943     6.5481    -3.4232 C.ar    
  36 C36           -4.4740     6.2325    -2.4455 C.ar    
  37 C37           -4.8158     6.3401    -1.0997 C.ar    
  38 O38           -4.3921     6.1876     2.3194 O.2     
  39 H39            2.1683    -2.6136    -0.0326 H       
  40 H40            0.0492    -3.8572    -0.0181 H       
  41 H41           -2.0965    -2.6557     0.0092 H       
  42 H42           -2.1400    -0.1995     0.0314 H       
  43 H43           -2.0275     1.6327     0.0205 H       
  44 H44           -0.7010     3.9594     0.9169 H       
  45 H45           -0.7094     3.9690    -0.8630 H       
  46 H46           -3.1764     3.7188    -0.8527 H       
  47 H47           -3.1679     3.7092     0.9272 H       
  48 H48           -2.1710     5.9795     0.9349 H       
  49 H49           -2.1794     5.9892    -0.8451 H       
  50 H50          -10.8718     2.6269     1.5208 H       
  51 H51          -10.6030     2.0085     3.1816 H       
  52 H52          -10.1476     6.8727     2.7030 H       
  53 H53           -6.6074     3.8826     1.0187 H       
  54 H54           -6.2646     8.9412     0.5605 H       
  55 H55           -5.9526     8.3511     2.2269 H       
  56 H56           -8.0030     7.4139    -1.4680 H       
  57 H57           -7.3813     7.2192    -3.8446 H       
  58 H58           -5.1224     6.4625    -4.4650 H       
  59 H59           -3.4848     5.9009    -2.7246 H       
@<TRIPOS>BOND
   1    1    2 1
   2    1    8 2
   3    1    9 am
   4    2    3 ar
   5    2    7 ar
   6    3    4 ar
   7    3   10 1
   8    4    5 ar
   9    4   39 1
  10    5    6 ar
  11    5   40 1
  12    6    7 ar
  13    6   41 1
  14    7   42 1
  15    9   15 1
  16    9   43 1
  17   10   11 1
  18   11   12 1
  19   11   13 1
  20   11   14 1
  21   15   16 1
  22   15   44 1
  23   15   45 1
  24   16   17 1
  25   16   46 1
  26   16   47 1
  27   17   30 1
  28   17   48 1
  29   17   49 1
  30   18   19 1
  31   18   22 1
  32   19   20 1
  33   19   50 1
  34   19   51 1
  35   20   21 1
  36   21   22 ar
  37   21   23 ar
  38   22   26 ar
  39   23   24 ar
  40   23   52 1
  41   24   25 ar
  42   24   27 1
  43   25   26 ar
  44   25   28 1
  45   26   53 1
  46   27   29 1
  47   28   29 1
  48   28   31 1
  49   28   32 1
  50   29   54 1
  51   29   55 1
  52   30   31 am
  53   30   37 1
  54   31   38 2
  55   32   33 ar
  56   32   37 ar
  57   33   34 ar
  58   33   56 1
  59   34   35 ar
  60   34   57 1
  61   35   36 ar
  62   35   58 1
  63   36   37 ar
  64   36   59 1

#	End of record

