#	Name: ASD03731590
#	Creating user name:	WinNT
#	Creation time:	15. 06. 2019 20:46

#	Modifying user name:	WinNT
#	Modification time:	15. 06. 2019 20:46

#	Program:	/corina/corina34_cracker 3.40 0067  02.08.2006

@<TRIPOS>MOLECULE
ASD03731590
  37   38    0    0    0
SMALL
NO_CHARGES


@<TRIPOS>ATOM
   1 C1            -0.4039     1.1045    -1.9595 C.2     
   2 C2            -0.2824    -0.2736    -1.4495 C.ar    
   3 C3             0.9015    -0.9941    -1.6483 C.ar    
   4 C4             1.0101    -2.2837    -1.1684 C.ar    
   5 C5            -0.0529    -2.8656    -0.4901 C.ar    
   6 C6            -1.2312    -2.1522    -0.2908 C.ar    
   7 C7            -1.3469    -0.8629    -0.7610 C.ar    
   8 O8             0.5250     1.6170    -2.5538 O.2     
   9 N9            -1.5466     1.7942    -1.7718 N.am    
  10 S10           -1.6830     3.3420    -2.3446 S.o2    
  11 O11           -2.9852     3.7492    -1.9472 O.2     
  12 O12           -0.5261     4.0021    -1.8497 O.2     
  13 C13           -1.5935     3.1669    -4.1479 C.3     
  14 F14            1.9354    -0.4284    -2.3088 F       
  15 O15            0.0574    -4.1341    -0.0206 O.3     
  16 C16            1.2601    -4.7567    -0.1405 C.ar    
  17 C17            2.2109    -4.6279     0.8617 C.ar    
  18 C18            3.4330    -5.2612     0.7398 C.ar    
  19 C19            3.7089    -6.0261    -0.3856 C.ar    
  20 C20            2.7583    -6.1542    -1.3866 C.ar    
  21 C21            1.5344    -5.5253    -1.2621 C.ar    
  22 O22            4.9117    -6.6491    -0.5062 O.3     
  23 C23            5.1274    -7.4195    -1.6903 C.3     
  24 F24            4.1685    -8.4353    -1.7668 F       
  25 F25            5.0193    -6.5906    -2.8120 F       
  26 Cl26           4.6233    -5.1000     1.9932 Cl      
  27 Cl27          -2.5557    -2.8869     0.5575 Cl      
  28 H28            1.9226    -2.8409    -1.3208 H       
  29 H29           -2.2603    -0.3091    -0.6015 H       
  30 H30           -2.2890     1.3839    -1.3013 H       
  31 H31           -2.4100     2.5321    -4.4923 H       
  32 H32           -1.6761     4.1492    -4.6129 H       
  33 H33           -0.6407     2.7140    -4.4221 H       
  34 H34            1.9960    -4.0326     1.7368 H       
  35 H35            2.9729    -6.7492    -2.2620 H       
  36 H36            0.7926    -5.6287    -2.0402 H       
  37 H37            6.1233    -7.8615    -1.6597 H       
@<TRIPOS>BOND
   1    1    2 1
   2    1    8 2
   3    1    9 am
   4    2    3 ar
   5    2    7 ar
   6    3    4 ar
   7    3   14 1
   8    4    5 ar
   9    4   28 1
  10    5    6 ar
  11    5   15 1
  12    6    7 ar
  13    6   27 1
  14    7   29 1
  15    9   10 am
  16    9   30 1
  17   10   11 2
  18   10   12 2
  19   10   13 1
  20   13   31 1
  21   13   32 1
  22   13   33 1
  23   15   16 1
  24   16   17 ar
  25   16   21 ar
  26   17   18 ar
  27   17   34 1
  28   18   19 ar
  29   18   26 1
  30   19   20 ar
  31   19   22 1
  32   20   21 ar
  33   20   35 1
  34   21   36 1
  35   22   23 1
  36   23   24 1
  37   23   25 1
  38   23   37 1

#	End of record

