#	Name: ASD02560090
#	Creating user name:	WinNT
#	Creation time:	15. 06. 2019 20:24

#	Modifying user name:	WinNT
#	Modification time:	15. 06. 2019 20:24

#	Program:	/corina/corina34_cracker 3.40 0067  02.08.2006

@<TRIPOS>MOLECULE
ASD02560090
  48   50    0    0    0
SMALL
NO_CHARGES


@<TRIPOS>ATOM
   1 C1             2.3157    -0.3685    -0.2221 C.3     
   2 C2             0.8902    -0.1737    -0.7382 C.3     
   3 C3             0.4309     1.2404    -0.4990 C.ar    
   4 C4             1.0355     2.0469     0.4513 C.ar    
   5 N5             2.1061     1.5703     1.2223 N.am    
   6 C6             2.3905     0.1287     1.2275 C.3     
   7 C7            -0.6211     1.7391    -1.2500 C.ar    
   8 C8            -1.0678     3.0320    -1.0527 C.ar    
   9 C9            -0.4660     3.8377    -0.1017 C.ar    
  10 C10            0.5842     3.3479     0.6499 C.ar    
  11 C11            2.8613     2.4203     1.9459 C.2     
  12 C12            3.4156     1.9880     3.2789 C.3     
  13 O13            3.0948     3.5333     1.5241 O.2     
  14 C14            4.3308     3.0832     3.8301 C.3     
  15 C15            4.8851     2.6509     5.1631 C.2     
  16 N16            5.7217     3.4621     5.8402 N.am    
  17 O17            4.5782     1.5728     5.6266 O.2     
  18 C18            6.1625     3.1027     7.1192 C.ar    
  19 C19            6.3884     1.7684     7.4277 C.ar    
  20 C20            6.8239     1.4168     8.6909 C.ar    
  21 C21            7.0345     2.3921     9.6479 C.ar    
  22 C22            6.8105     3.7227     9.3447 C.ar    
  23 C23            6.3804     4.0818     8.0815 C.ar    
  24 Cl24           6.0999     5.7522     7.7009 Cl      
  25 Cl25           1.3409     4.3559     1.8437 Cl      
  26 Cl26          -2.3862     3.6470    -2.0001 Cl      
  27 S27            7.5888     1.9387    11.2578 S.o2    
  28 O28            7.1915     2.9884    12.1294 O.2     
  29 O29            7.2050     0.5837    11.4476 O.2     
  30 N30            9.2445     1.9561    11.2292 N.am    
  31 H31            2.5762    -1.4262    -0.2593 H       
  32 H32            3.0089     0.2022    -0.8401 H       
  33 H33            0.8627    -0.3849    -1.8072 H       
  34 H34            0.2227    -0.8614    -0.2190 H       
  35 H35            1.6501    -0.3916     1.8350 H       
  36 H36            3.3886    -0.0493     1.6277 H       
  37 H37           -1.0941     1.1146    -1.9934 H       
  38 H38           -0.8167     4.8475     0.0521 H       
  39 H39            2.5947     1.8159     3.9751 H       
  40 H40            3.9852     1.0671     3.1541 H       
  41 H41            5.1516     3.2553     3.1338 H       
  42 H42            3.7611     4.0041     3.9549 H       
  43 H43            6.0184     4.2949     5.4411 H       
  44 H44            6.2236     1.0056     6.6811 H       
  45 H45            6.9998     0.3787     8.9312 H       
  46 H46            6.9759     4.4822    10.0945 H       
  47 H47            9.7130     2.1902    10.4127 H       
  48 H48            9.7458     1.7321    12.0288 H       
@<TRIPOS>BOND
   1    1    2 1
   2    1    6 1
   3    1   31 1
   4    1   32 1
   5    2    3 1
   6    2   33 1
   7    2   34 1
   8    3    4 ar
   9    3    7 ar
  10    4    5 1
  11    4   10 ar
  12    5    6 1
  13    5   11 am
  14    6   35 1
  15    6   36 1
  16    7    8 ar
  17    7   37 1
  18    8    9 ar
  19    8   26 1
  20    9   10 ar
  21    9   38 1
  22   10   25 1
  23   11   12 1
  24   11   13 2
  25   12   14 1
  26   12   39 1
  27   12   40 1
  28   14   15 1
  29   14   41 1
  30   14   42 1
  31   15   16 am
  32   15   17 2
  33   16   18 1
  34   16   43 1
  35   18   19 ar
  36   18   23 ar
  37   19   20 ar
  38   19   44 1
  39   20   21 ar
  40   20   45 1
  41   21   22 ar
  42   21   27 1
  43   22   23 ar
  44   22   46 1
  45   23   24 1
  46   27   28 2
  47   27   29 2
  48   27   30 am
  49   30   47 1
  50   30   48 1

#	End of record

