#	Name: ASD01890356
#	Creating user name:	WinNT
#	Creation time:	15. 06. 2019 19:50

#	Modifying user name:	WinNT
#	Modification time:	15. 06. 2019 19:50

#	Program:	/corina/corina34_cracker 3.40 0067  02.08.2006

@<TRIPOS>MOLECULE
ASD01890356
  43   45    0    0    0
SMALL
NO_CHARGES


@<TRIPOS>ATOM
   1 C1            -0.0184     1.5028     0.0103 C.2     
   2 C2             0.0021    -0.0041     0.0020 C.3     
   3 C3             1.4513    -0.4944    -0.0145 C.3     
   4 O4             1.0197     2.1211     0.0037 O.2     
   5 O5            -1.1898     2.1580     0.0194 O.3     
   6 C6             2.1318    -0.0935     1.2690 C.ar    
   7 C7             3.2467     0.7230     1.2343 C.ar    
   8 C8             3.8710     1.0907     2.4116 C.ar    
   9 C9             3.3802     0.6423     3.6235 C.ar    
  10 C10            2.2647    -0.1735     3.6582 C.ar    
  11 C11            1.6379    -0.5377     2.4812 C.ar    
  12 O12            0.9140    -2.8526     0.7258 O.3     
  13 C13            1.4723    -1.9954    -0.1466 C.2     
  14 C14            2.0501    -2.6690    -1.1504 C.2     
  15 C15            1.8261    -4.0924    -0.8703 C.ar    
  16 C16            1.1008    -4.1288     0.3326 C.ar    
  17 C17            2.1688    -5.2784    -1.5174 C.ar    
  18 C18            1.7921    -6.4854    -0.9704 C.ar    
  19 C19            1.0761    -6.5220     0.2171 C.ar    
  20 C20            0.7310    -5.3562     0.8669 C.ar    
  21 C21            2.1591    -7.7713    -1.6654 C.3     
  22 C22           -1.1335     3.6089     0.0270 C.3     
  23 C23           -2.5551     4.1744     0.0369 C.3     
  24 H24           -0.4983    -0.3791     0.8948 H       
  25 H25           -0.5153    -0.3696    -0.8850 H       
  26 H26            1.9763    -0.0479    -0.8589 H       
  27 H27            3.6302     1.0734     0.2874 H       
  28 H28            4.7425     1.7281     2.3845 H       
  29 H29            3.8683     0.9290     4.5433 H       
  30 H30            1.8814    -0.5242     4.6051 H       
  31 H31            0.7642    -1.1720     2.5086 H       
  32 H32            2.5748    -2.2491    -1.9959 H       
  33 H33            2.7259    -5.2513    -2.4422 H       
  34 H34            0.7857    -7.4738     0.6368 H       
  35 H35            0.1735    -5.3973     1.7910 H       
  36 H36            3.1278    -8.1161    -1.3037 H       
  37 H37            1.4025    -8.5270    -1.4544 H       
  38 H38            2.2124    -7.6007    -2.7406 H       
  39 H39           -0.6017     3.9472     0.9164 H       
  40 H40           -0.6102     3.9569    -0.8636 H       
  41 H41           -3.0869     3.8361    -0.8525 H       
  42 H42           -3.0784     3.8265     0.9275 H       
  43 H43           -2.5128     5.2636     0.0426 H       
@<TRIPOS>BOND
   1    1    2 1
   2    1    4 2
   3    1    5 1
   4    2    3 1
   5    2   24 1
   6    2   25 1
   7    3    6 1
   8    3   13 1
   9    3   26 1
  10    5   22 1
  11    6    7 ar
  12    6   11 ar
  13    7    8 ar
  14    7   27 1
  15    8    9 ar
  16    8   28 1
  17    9   10 ar
  18    9   29 1
  19   10   11 ar
  20   10   30 1
  21   11   31 1
  22   12   13 1
  23   12   16 1
  24   13   14 2
  25   14   15 1
  26   14   32 1
  27   15   16 ar
  28   15   17 ar
  29   16   20 ar
  30   17   18 ar
  31   17   33 1
  32   18   19 ar
  33   18   21 1
  34   19   20 ar
  35   19   34 1
  36   20   35 1
  37   21   36 1
  38   21   37 1
  39   21   38 1
  40   22   23 1
  41   22   39 1
  42   22   40 1
  43   23   41 1
  44   23   42 1
  45   23   43 1

#	End of record

