#	Name: ASD01901587
#	Creating user name:	WinNT
#	Creation time:	15. 06. 2019 19:54

#	Modifying user name:	WinNT
#	Modification time:	15. 06. 2019 19:54

#	Program:	/corina/corina34_cracker 3.40 0067  02.08.2006

@<TRIPOS>MOLECULE
ASD01901587
  55   59    0    0    0
SMALL
NO_CHARGES


@<TRIPOS>ATOM
   1 C1            -0.0187     1.5258     0.0104 C.3     
   2 C2             0.0021    -0.0041     0.0020 C.3     
   3 C3             0.6382    -0.4265    -1.2995 C.3     
   4 C4             1.9968    -1.0251    -1.1491 C.2     
   5 O5             2.5838    -1.3797    -2.1489 O.2     
   6 N6             2.5997    -1.1898     0.0341 N.am    
   7 C7             1.9710    -0.8931     1.1802 C.2     
   8 O8             2.5510    -1.0674     2.2340 O.2     
   9 N9             0.7145    -0.4221     1.1973 N.am    
  10 C10            0.0060    -0.3153     2.4884 C.3     
  11 C11           -1.2473    -1.1893     2.4185 C.3     
  12 N12           -1.9780    -0.9502     1.1811 N.am    
  13 C13           -1.4290    -0.4559     0.0683 C.2     
  14 O14           -2.1135    -0.3684    -0.9288 O.2     
  15 C15           -3.3341    -1.2567     1.1568 C.ar    
  16 C16           -3.9874    -1.6721     2.3171 C.ar    
  17 C17           -5.3362    -1.9648     2.2416 C.ar    
  18 N18           -5.9598    -1.8422     1.0790 N.ar    
  19 C19           -5.3133    -1.4471     0.0005 C.ar    
  20 N20           -4.0294    -1.1532     0.0287 N.ar    
  21 C21            3.9124    -1.6820     0.0759 C.ar    
  22 C22            4.1374    -3.0529     0.1502 C.ar    
  23 F23            3.0916    -3.9076     0.1816 F       
  24 C24            5.4276    -3.5407     0.1915 C.ar    
  25 C25            6.5091    -2.6556     0.1585 C.ar    
  26 C26            6.2791    -1.2788     0.0837 C.ar    
  27 C27            4.9863    -0.7985     0.0371 C.ar    
  28 F28            4.7632     0.5317    -0.0406 F       
  29 C29            7.8493    -3.1581     0.2016 C.1     
  30 C30            8.9481    -3.5701     0.2369 C.1     
  31 C31           10.2883    -4.0726     0.2800 C.ar    
  32 C32           10.5203    -5.4489     0.3493 C.ar    
  33 C33           11.8138    -5.9255     0.3900 C.ar    
  34 C34           12.8806    -5.0445     0.3624 C.ar    
  35 C35           12.6587    -3.6804     0.2938 C.ar    
  36 C36           11.3708    -3.1893     0.2471 C.ar    
  37 H37            1.0039     1.9031     0.0027 H       
  38 H38           -0.5459     1.8868    -0.8726 H       
  39 H39           -0.5289     1.8773     0.9072 H       
  40 H40           -0.0112    -1.1571    -1.7817 H       
  41 H41            0.7138     0.4464    -1.9479 H       
  42 H42            0.6532    -0.6641     3.2931 H       
  43 H43           -0.2782     0.7216     2.6674 H       
  44 H44           -0.9558    -2.2385     2.4657 H       
  45 H45           -1.8927    -0.9589     3.2662 H       
  46 H46           -3.4527    -1.7632     3.2510 H       
  47 H47           -5.8750    -2.2897     3.1193 H       
  48 H48           -5.8520    -1.3578    -0.9313 H       
  49 H49            5.6016    -4.6050     0.2495 H       
  50 H50            7.1123    -0.5921     0.0584 H       
  51 H51            9.6886    -6.1376     0.3713 H       
  52 H52           11.9946    -6.9889     0.4439 H       
  53 H53           13.8914    -5.4235     0.3949 H       
  54 H54           13.4962    -2.9988     0.2726 H       
  55 H55           11.1991    -2.1246     0.1890 H       
@<TRIPOS>BOND
   1    1    2 1
   2    1   37 1
   3    1   38 1
   4    1   39 1
   5    2    9 1
   6    2   13 1
   7    2    3 1
   8    3    4 1
   9    3   40 1
  10    3   41 1
  11    4    5 2
  12    4    6 am
  13    6    7 am
  14    6   21 1
  15    7    8 2
  16    7    9 am
  17    9   10 1
  18   10   11 1
  19   10   42 1
  20   10   43 1
  21   11   12 1
  22   11   44 1
  23   11   45 1
  24   12   13 am
  25   12   15 1
  26   13   14 2
  27   15   20 ar
  28   15   16 ar
  29   16   17 ar
  30   16   46 1
  31   17   18 ar
  32   17   47 1
  33   18   19 ar
  34   19   20 ar
  35   19   48 1
  36   21   27 ar
  37   21   22 ar
  38   22   23 1
  39   22   24 ar
  40   24   25 ar
  41   24   49 1
  42   25   26 ar
  43   25   29 1
  44   26   27 ar
  45   26   50 1
  46   27   28 1
  47   29   30 3
  48   30   31 1
  49   31   36 ar
  50   31   32 ar
  51   32   33 ar
  52   32   51 1
  53   33   34 ar
  54   33   52 1
  55   34   35 ar
  56   34   53 1
  57   35   36 ar
  58   35   54 1
  59   36   55 1

#	End of record

