#	Name: ASD01810683
#	Creating user name:	WinNT
#	Creation time:	15. 06. 2019 19:25

#	Modifying user name:	WinNT
#	Modification time:	15. 06. 2019 19:25

#	Program:	/corina/corina34_cracker 3.40 0067  02.08.2006

@<TRIPOS>MOLECULE
ASD01810683
  67   72    0    0    0
SMALL
NO_CHARGES


@<TRIPOS>ATOM
   1 C1            -0.1782     1.9903     0.5212 C.ar    
   2 C2             0.0700     0.6164     0.5357 C.ar    
   3 C3            -0.9730    -0.2784     0.3984 C.ar    
   4 C4            -2.2668     0.1782     0.2459 C.ar    
   5 C5            -2.5290     1.5502     0.2301 C.ar    
   6 C6            -1.4821     2.4579     0.3740 C.ar    
   7 C7            -3.9154     2.0377     0.0667 C.2     
   8 N8            -4.4490     2.8707     0.9820 N.am    
   9 O9            -4.5737     1.6873    -0.8931 O.2     
  10 C10           -5.8514     3.2968     0.8789 C.3     
  11 C11           -3.6413     3.3651     2.1054 C.3     
  12 C12           -4.3772     3.0597     3.4138 C.3     
  13 C13           -5.7893     3.6461     3.3490 C.3     
  14 C14           -6.5579     2.9924     2.2036 C.3     
  15 C15           -6.5047     3.3772     4.6479 C.ar    
  16 C16           -6.9624     4.4347     5.4137 C.ar    
  17 C17           -7.6184     4.1957     6.6035 C.ar    
  18 C18           -7.8201     2.8829     7.0343 C.ar    
  19 C19           -7.3555     1.8204     6.2564 C.ar    
  20 C20           -6.7057     2.0737     5.0662 C.ar    
  21 C21            0.9403     2.9472     0.6679 C.2     
  22 N22            2.1854     2.6193     0.9205 N.2     
  23 C23            2.9427     3.7287     0.9898 C.ar    
  24 C24            2.0942     4.8317     0.7609 C.ar    
  25 N25            0.8327     4.3059     0.5548 N.pl3   
  26 C26            4.3002     3.9768     1.2261 C.ar    
  27 C27            4.7457     5.2847     1.2246 C.ar    
  28 N28            3.9135     6.2935     1.0054 N.ar    
  29 C29            2.6274     6.1086     0.7770 C.ar    
  30 C30            1.4793     0.1087     0.7011 C.3     
  31 C31           -3.3985    -0.8055     0.0957 C.3     
  32 C32           -8.4999     2.6273     8.2684 C.1     
  33 N33           -9.0391     2.4245     9.2475 N.1     
  34 O34            6.0595     5.5417     1.4523 O.3     
  35 C35            6.4643     6.9121     1.4392 C.3     
  36 C36            7.6610     7.2161     2.3602 C.3     
  37 O37            8.1571     8.0112     1.2646 O.3     
  38 C38            7.4113     7.2699     0.2782 C.3     
  39 H39           -0.7754    -1.3401     0.4099 H       
  40 H40           -1.6794     3.5197     0.3629 H       
  41 H41           -5.8942     4.3676     0.6796 H       
  42 H42           -6.3401     2.7528     0.0706 H       
  43 H43           -2.6722     2.8660     2.1061 H       
  44 H44           -3.5002     4.4415     2.0081 H       
  45 H45           -4.4375     1.9805     3.5539 H       
  46 H46           -3.8360     3.5057     4.2482 H       
  47 H47           -5.7286     4.7219     3.1842 H       
  48 H48           -7.5715     3.3921     2.1708 H       
  49 H49           -6.5963     1.9143     2.3598 H       
  50 H50           -6.8055     5.4496     5.0795 H       
  51 H51           -7.9749     5.0220     7.2005 H       
  52 H52           -7.5078     0.8026     6.5840 H       
  53 H53           -6.3458     1.2529     4.4635 H       
  54 H54            0.0227     4.8066     0.3705 H       
  55 H55            4.9856     3.1619     1.4065 H       
  56 H56            1.9858     6.9599     0.6033 H       
  57 H57            1.7315     0.0755     1.7610 H       
  58 H58            1.5568    -0.8926     0.2777 H       
  59 H59            2.1689     0.7762     0.1843 H       
  60 H60           -3.7392    -1.1207     1.0819 H       
  61 H61           -4.2222    -0.3327    -0.4393 H       
  62 H62           -3.0528    -1.6744    -0.4642 H       
  63 H63            5.6302     7.6037     1.5585 H       
  64 H64            7.4003     7.7976     3.2445 H       
  65 H65            8.2757     6.3449     2.5866 H       
  66 H66            7.9497     6.4151    -0.1311 H       
  67 H67            6.9526     7.8941    -0.4887 H       
@<TRIPOS>BOND
   1    1    2 ar
   2    1   21 1
   3    1    6 ar
   4    2    3 ar
   5    2   30 1
   6    3    4 ar
   7    3   39 1
   8    4    5 ar
   9    4   31 1
  10    5    6 ar
  11    5    7 1
  12    6   40 1
  13    7    8 am
  14    7    9 2
  15    8   10 1
  16    8   11 1
  17   10   14 1
  18   10   41 1
  19   10   42 1
  20   11   12 1
  21   11   43 1
  22   11   44 1
  23   12   13 1
  24   12   45 1
  25   12   46 1
  26   13   14 1
  27   13   15 1
  28   13   47 1
  29   14   48 1
  30   14   49 1
  31   15   16 ar
  32   15   20 ar
  33   16   17 ar
  34   16   50 1
  35   17   18 ar
  36   17   51 1
  37   18   19 ar
  38   18   32 1
  39   19   20 ar
  40   19   52 1
  41   20   53 1
  42   21   22 2
  43   21   25 1
  44   22   23 1
  45   23   24 ar
  46   23   26 ar
  47   24   25 1
  48   24   29 ar
  49   25   54 1
  50   26   27 ar
  51   26   55 1
  52   27   28 ar
  53   27   34 1
  54   28   29 ar
  55   29   56 1
  56   30   57 1
  57   30   58 1
  58   30   59 1
  59   31   60 1
  60   31   61 1
  61   31   62 1
  62   32   33 3
  63   34   35 1
  64   35   36 1
  65   35   38 1
  66   35   63 1
  67   36   37 1
  68   36   64 1
  69   36   65 1
  70   37   38 1
  71   38   66 1
  72   38   67 1

#	End of record

