#	Name: ASD01884901
#	Creating user name:	WinNT
#	Creation time:	15. 06. 2019 19:49

#	Modifying user name:	WinNT
#	Modification time:	15. 06. 2019 19:49

#	Program:	/corina/corina34_cracker 3.40 0067  02.08.2006

@<TRIPOS>MOLECULE
ASD01884901
  48   51    0    0    0
SMALL
NO_CHARGES


@<TRIPOS>ATOM
   1 C1            -0.0170     1.4012     0.0097 C.2     
   2 C2             0.0021    -0.0041     0.0020 C.2     
   3 C3            -1.1527    -0.7023     0.0088 C.2     
   4 N4            -2.3537    -0.0553     0.0232 N.pl3   
   5 C5            -2.4051     1.3169     0.0316 C.2     
   6 C6            -1.2079     2.0602     0.0303 C.2     
   7 Cl7           -1.2514     3.7956     0.0413 Cl      
   8 C8            -3.6473    -0.4765     0.0328 C.2     
   9 N9            -4.4076     0.5879     0.0460 N.2     
  10 N10           -3.6848     1.6525     0.0453 N.2     
  11 C11           -4.1183    -1.9080     0.0290 C.3     
  12 C12            1.2759     2.1754     0.0016 C.3     
  13 N13            1.7712     2.3159     1.3774 N.3     
  14 C14            3.1379     2.8529     1.3924 C.3     
  15 C15            3.6732     2.8491     2.8261 C.3     
  16 C16            2.7594     3.7034     3.7091 C.3     
  17 C17            1.3327     3.1521     3.6377 C.3     
  18 C18            0.8653     3.1471     2.1805 C.3     
  19 C19            3.2473     3.6550     5.1342 C.ar    
  20 C20            3.6241     4.8201     5.7757 C.ar    
  21 C21            4.0716     4.7757     7.0828 C.ar    
  22 C22            4.1420     3.5663     7.7486 C.ar    
  23 C23            3.7643     2.4013     7.1073 C.ar    
  24 C24            3.3127     2.4463     5.8016 C.ar    
  25 C25           -4.2643    -2.4007     1.4702 C.3     
  26 H26            0.9463    -0.5282    -0.0098 H       
  27 H27           -1.1259    -1.7819     0.0024 H       
  28 H28           -5.0820    -1.9720    -0.4762 H       
  29 H29           -3.3913    -2.5283    -0.4951 H       
  30 H30            2.0144     1.6429    -0.5978 H       
  31 H31            1.1051     3.1634    -0.4258 H       
  32 H32            3.7783     2.2339     0.7641 H       
  33 H33            3.1313     3.8736     1.0099 H       
  34 H34            3.6930     1.8271     3.2045 H       
  35 H35            4.6818     3.2622     2.8391 H       
  36 H36            2.7698     4.7341     3.3544 H       
  37 H37            1.3157     2.1348     4.0288 H       
  38 H38            0.6692     3.7816     4.2306 H       
  39 H39            0.8694     4.1663     1.7943 H       
  40 H40           -0.1449     2.7417     2.1245 H       
  41 H41            3.5691     5.7650     5.2555 H       
  42 H42            4.3667     5.6858     7.5838 H       
  43 H43            4.4923     3.5315     8.7696 H       
  44 H44            3.8196     1.4564     7.6274 H       
  45 H45            3.0176     1.5361     5.3007 H       
  46 H46           -4.6050    -3.4360     1.4674 H       
  47 H47           -3.3007    -2.3366     1.9755 H       
  48 H48           -4.9914    -1.7803     1.9943 H       
@<TRIPOS>BOND
   1    1    2 1
   2    1   12 1
   3    1    6 2
   4    2    3 2
   5    2   26 1
   6    3    4 1
   7    3   27 1
   8    4    5 1
   9    4    8 1
  10    5    6 1
  11    5   10 2
  12    6    7 1
  13    8    9 2
  14    8   11 1
  15    9   10 1
  16   11   25 1
  17   11   28 1
  18   11   29 1
  19   12   13 1
  20   12   30 1
  21   12   31 1
  22   13   14 1
  23   13   18 1
  24   14   15 1
  25   14   32 1
  26   14   33 1
  27   15   16 1
  28   15   34 1
  29   15   35 1
  30   16   17 1
  31   16   19 1
  32   16   36 1
  33   17   18 1
  34   17   37 1
  35   17   38 1
  36   18   39 1
  37   18   40 1
  38   19   20 ar
  39   19   24 ar
  40   20   21 ar
  41   20   41 1
  42   21   22 ar
  43   21   42 1
  44   22   23 ar
  45   22   43 1
  46   23   24 ar
  47   23   44 1
  48   24   45 1
  49   25   46 1
  50   25   47 1
  51   25   48 1

#	End of record

