#	Name: ASD01810529
#	Creating user name:	WinNT
#	Creation time:	15. 06. 2019 19:24

#	Modifying user name:	WinNT
#	Modification time:	15. 06. 2019 19:24

#	Program:	/corina/corina34_cracker 3.40 0067  02.08.2006

@<TRIPOS>MOLECULE
ASD01810529
  47   50    0    0    0
SMALL
NO_CHARGES


@<TRIPOS>ATOM
   1 C1            -2.3189    -2.8494     0.2783 C.ar    
   2 C2            -1.1426    -2.1127     0.1354 C.ar    
   3 C3             0.1017    -2.7637     0.1184 C.ar    
   4 C4             0.1446    -4.1521     0.2464 C.ar    
   5 C5            -1.0265    -4.8666     0.3873 C.ar    
   6 C6            -2.2540    -4.2192     0.4027 C.ar    
   7 C7            -1.1741    -0.6444    -0.0009 C.2     
   8 C8             0.1179     0.0450    -0.1470 C.2     
   9 C9             1.2772    -0.7046    -0.1493 C.2     
  10 N10            1.2649    -2.0374    -0.0235 N.pl3   
  11 O11           -2.2254    -0.0283     0.0068 O.2     
  12 F12            1.3321    -4.7962     0.2319 F       
  13 C13            2.5422    -2.7547    -0.0363 C.3     
  14 C14            2.9156    -3.0905    -1.4572 C.ar    
  15 C15            3.5401    -2.1557    -2.2250 C.ar    
  16 C16            2.6216    -4.3548    -1.9634 C.ar    
  17 C17            2.9456    -4.6903    -3.2423 C.ar    
  18 C18            3.5860    -3.7497    -4.0670 C.ar    
  19 C19            3.8897    -2.4649    -3.5501 C.ar    
  20 C20            3.9349    -4.0602    -5.3917 C.ar    
  21 C21            4.5559    -3.1206    -6.1641 C.ar    
  22 C22            4.8496    -1.8521    -5.6537 C.ar    
  23 C23            4.5299    -1.5223    -4.3738 C.ar    
  24 O24            4.8933    -3.4224    -7.4453 O.3     
  25 C25            5.8408    -2.9197    -9.6110 C.3     
  26 C26            0.1731     1.5069    -0.2886 C.2     
  27 O27           -0.9660     2.2278    -0.2854 O.3     
  28 O28            1.2458     2.0659    -0.4087 O.2     
  29 C29            5.5408    -2.3990    -8.2040 C.3     
  30 H30           -3.2750    -2.3475     0.2958 H       
  31 H31           -0.9881    -5.9415     0.4857 H       
  32 H32           -3.1625    -4.7925     0.5138 H       
  33 H33            2.2255    -0.1991    -0.2569 H       
  34 H34            3.3163    -2.1262     0.4039 H       
  35 H35            2.4484    -3.6741     0.5417 H       
  36 H36            3.7652    -1.1812    -1.8177 H       
  37 H37            2.1295    -5.0796    -1.3317 H       
  38 H38            2.7122    -5.6745    -3.6210 H       
  39 H39            3.7136    -5.0365    -5.7970 H       
  40 H40            5.3413    -1.1255    -6.2836 H       
  41 H41            4.7627    -0.5389    -3.9929 H       
  42 H42            6.3347    -2.1390   -10.1896 H       
  43 H43            6.4931    -3.7905    -9.5447 H       
  44 H44            4.9085    -3.2004   -10.1010 H       
  45 H45           -0.8793     3.1861    -0.3814 H       
  46 H46            4.8885    -1.5282    -8.2702 H       
  47 H47            6.4730    -2.1182    -7.7139 H       
@<TRIPOS>BOND
   1    1    2 ar
   2    1    6 ar
   3    1   30 1
   4    2    3 ar
   5    2    7 1
   6    3    4 ar
   7    3   10 1
   8    4    5 ar
   9    4   12 1
  10    5    6 ar
  11    5   31 1
  12    6   32 1
  13    7    8 1
  14    7   11 2
  15    8    9 2
  16    8   26 1
  17    9   10 1
  18    9   33 1
  19   10   13 1
  20   13   14 1
  21   13   34 1
  22   13   35 1
  23   14   15 ar
  24   14   16 ar
  25   15   19 ar
  26   15   36 1
  27   16   17 ar
  28   16   37 1
  29   17   18 ar
  30   17   38 1
  31   18   19 ar
  32   18   20 ar
  33   19   23 ar
  34   20   21 ar
  35   20   39 1
  36   21   22 ar
  37   21   24 1
  38   22   23 ar
  39   22   40 1
  40   23   41 1
  41   24   29 1
  42   25   29 1
  43   25   42 1
  44   25   43 1
  45   25   44 1
  46   26   27 1
  47   26   28 2
  48   27   45 1
  49   29   46 1
  50   29   47 1

#	End of record

