#	Name: ASD01915120
#	Creating user name:	WinNT
#	Creation time:	15. 06. 2019 20:04

#	Modifying user name:	WinNT
#	Modification time:	15. 06. 2019 20:04

#	Program:	/corina/corina34_cracker 3.40 0067  02.08.2006

@<TRIPOS>MOLECULE
ASD01915120
  45   48    0    0    0
SMALL
NO_CHARGES


@<TRIPOS>ATOM
   1 C1            -0.0169     1.3924     0.0097 C.ar    
   2 C2             0.0021    -0.0041     0.0020 C.ar    
   3 N3            -1.1430    -0.6903     0.0092 N.ar    
   4 C4            -2.3136    -0.0965     0.0236 C.ar    
   5 C5            -2.4136     1.2863     0.0320 C.ar    
   6 C6            -1.2657     2.0479     0.0305 C.ar    
   7 C7             1.3286     1.9586    -0.0001 C.2     
   8 C8             2.3057     1.0550    -0.0143 C.2     
   9 S9             1.6661    -0.5765    -0.0169 S.3     
  10 C10            1.5853     3.4182     0.0053 C.ar    
  11 C11            1.2153     4.1896     1.1063 C.ar    
  12 C12            1.4570     5.5481     1.1063 C.ar    
  13 C13            2.0652     6.1455     0.0155 C.ar    
  14 C14            2.4346     5.3842    -1.0803 C.ar    
  15 C15            2.2028     4.0241    -1.0883 C.ar    
  16 Cl16           2.3654     7.8553     0.0216 Cl      
  17 S17            4.0231     1.4489    -0.0291 S.o2    
  18 N18            4.5163     1.5504     1.5485 N.am    
  19 O19            4.6881     0.3233    -0.5858 O.2     
  20 O20            4.1295     2.7595    -0.5679 O.2     
  21 C21            5.0219     0.3641     2.2526 C.3     
  22 C22            4.2309     0.1880     3.5526 C.3     
  23 C23            4.3029     1.4810     4.3681 C.3     
  24 C24            3.6726     2.6249     3.5704 C.3     
  25 C25            4.4625     2.8299     2.2688 C.3     
  26 C26            3.5428     1.2973     5.6831 C.3     
  27 H27           -3.2129    -0.6945     0.0286 H       
  28 H28           -3.3830     1.7623     0.0435 H       
  29 H29           -1.3210     3.1265     0.0370 H       
  30 H30            0.7401     3.7247     1.9575 H       
  31 H31            1.1709     6.1465     1.9586 H       
  32 H32            2.9088     5.8552    -1.9287 H       
  33 H33            2.4916     3.4311    -1.9435 H       
  34 H34            4.8923    -0.5168     1.6239 H       
  35 H35            6.0786     0.4987     2.4832 H       
  36 H36            3.1904    -0.0366     3.3179 H       
  37 H37            4.6588    -0.6310     4.1308 H       
  38 H38            5.3452     1.7183     4.5813 H       
  39 H39            2.6374     2.3774     3.3354 H       
  40 H40            3.7031     3.5405     4.1611 H       
  41 H41            5.4724     3.1660     2.5034 H       
  42 H42            3.9615     3.5750     1.6508 H       
  43 H43            3.9924     0.4834     6.2520 H       
  44 H44            3.5940     2.2182     6.2641 H       
  45 H45            2.5006     1.0595     5.4703 H       
@<TRIPOS>BOND
   1    1    2 ar
   2    1    7 1
   3    1    6 ar
   4    2    3 ar
   5    2    9 1
   6    3    4 ar
   7    4    5 ar
   8    4   27 1
   9    5    6 ar
  10    5   28 1
  11    6   29 1
  12    7    8 2
  13    7   10 1
  14    8    9 1
  15    8   17 1
  16   10   11 ar
  17   10   15 ar
  18   11   12 ar
  19   11   30 1
  20   12   13 ar
  21   12   31 1
  22   13   14 ar
  23   13   16 1
  24   14   15 ar
  25   14   32 1
  26   15   33 1
  27   17   18 am
  28   17   19 2
  29   17   20 2
  30   18   21 1
  31   18   25 1
  32   21   22 1
  33   21   34 1
  34   21   35 1
  35   22   23 1
  36   22   36 1
  37   22   37 1
  38   23   24 1
  39   23   26 1
  40   23   38 1
  41   24   25 1
  42   24   39 1
  43   24   40 1
  44   25   41 1
  45   25   42 1
  46   26   43 1
  47   26   44 1
  48   26   45 1

#	End of record

