#	Name: ASD08178162
#	Creating user name:	WinNT
#	Creation time:	15. 06. 2019 21:18

#	Modifying user name:	WinNT
#	Modification time:	15. 06. 2019 21:18

#	Program:	/corina/corina34_cracker 3.40 0067  02.08.2006

@<TRIPOS>MOLECULE
ASD08178162
  57   60    0    0    0
SMALL
NO_CHARGES


@<TRIPOS>ATOM
   1 C1            -0.0155     1.2947     0.0092 C.2     
   2 N2             0.0021    -0.0041     0.0020 N.2     
   3 N3            -1.1080    -0.6054     0.0101 N.2     
   4 C4            -2.1692     0.1372     0.0249 C.2     
   5 S5            -1.6454     1.8216     0.0350 S.3     
   6 C6            -3.5951    -0.3504     0.0368 C.3     
   7 C7            -7.8906    -1.8598     4.9236 C.2     
   8 N8            -8.3845    -0.9296     5.6775 N.2     
   9 N9            -8.5693    -1.2247     6.8910 N.2     
  10 C10           -8.2514    -2.4241     7.2751 C.2     
  11 S11           -7.6477    -3.2906     5.9262 S.3     
  12 N12           -8.3848    -2.9239     8.5660 N.am    
  13 C13           -8.8817    -2.1407     9.5439 C.2     
  14 C14           -9.0263    -2.6823    10.9427 C.3     
  15 O15           -9.2127    -1.0001     9.2980 O.2     
  16 C16           -9.6007    -1.6147    11.8379 C.ar    
  17 C17          -10.9717    -1.4870    12.0005 C.ar    
  18 C18          -11.4621    -0.4963    12.8300 C.ar    
  19 N19          -10.6427     0.3213    13.4618 N.ar    
  20 C20           -9.3337     0.2291    13.3308 C.ar    
  21 C21           -8.7707    -0.7405    12.5229 C.ar    
  22 N22            1.1034     2.1206     0.0029 N.am    
  23 C23            2.3386     1.5818    -0.0123 C.2     
  24 O24            2.4745     0.3766    -0.0205 O.2     
  25 C25            3.5511     2.4767    -0.0190 C.3     
  26 C26            4.7989     1.6319    -0.0361 C.ar    
  27 C27            5.3749     1.2409    -1.2351 C.ar    
  28 C28            6.5195     0.4667    -1.2115 C.ar    
  29 N29            7.0625     0.1002    -0.0671 N.ar    
  30 C30            6.5421     0.4535     1.0920 C.ar    
  31 C31            5.4016     1.2321     1.1468 C.ar    
  32 C32           -4.0631    -0.5225     1.4832 C.3     
  33 S33           -5.7795    -1.1094     1.4976 S.3     
  34 C34           -6.1479    -1.2502     3.2682 C.3     
  35 C35           -7.5846    -1.7429     3.4526 C.3     
  36 H36           -4.2319     0.3767    -0.4671 H       
  37 H37           -3.6561    -1.3075    -0.4812 H       
  38 H38           -8.1201    -3.8361     8.7627 H       
  39 H39           -9.6930    -3.5445    10.9315 H       
  40 H40           -8.0485    -2.9840    11.3184 H       
  41 H41          -11.6479    -2.1531    11.4853 H       
  42 H42          -12.5287    -0.3902    12.9621 H       
  43 H43           -8.6942     0.9170    13.8640 H       
  44 H44           -7.6979    -0.8112    12.4199 H       
  45 H45            0.9948     3.0845     0.0095 H       
  46 H46            3.5296     3.1110    -0.9053 H       
  47 H47            3.5470     3.1008     0.8746 H       
  48 H48            4.9346     1.5373    -2.1757 H       
  49 H49            6.9743     0.1579    -2.1412 H       
  50 H50            7.0148     0.1339     2.0089 H       
  51 H51            4.9803     1.5185     2.0992 H       
  52 H52           -3.4263    -1.2496     1.9871 H       
  53 H53           -4.0021     0.4346     2.0012 H       
  54 H54           -5.4589    -1.9591     3.7274 H       
  55 H55           -6.0346    -0.2749     3.7415 H       
  56 H56           -7.6978    -2.7182     2.9793 H       
  57 H57           -8.2736    -1.0339     2.9934 H       
@<TRIPOS>BOND
   1    1    2 2
   2    1   22 1
   3    1    5 1
   4    2    3 1
   5    3    4 2
   6    4    5 1
   7    4    6 1
   8    6   32 1
   9    6   36 1
  10    6   37 1
  11    7    8 2
  12    7   35 1
  13    7   11 1
  14    8    9 1
  15    9   10 2
  16   10   11 1
  17   10   12 1
  18   12   13 am
  19   12   38 1
  20   13   14 1
  21   13   15 2
  22   14   16 1
  23   14   39 1
  24   14   40 1
  25   16   17 ar
  26   16   21 ar
  27   17   18 ar
  28   17   41 1
  29   18   19 ar
  30   18   42 1
  31   19   20 ar
  32   20   21 ar
  33   20   43 1
  34   21   44 1
  35   22   23 am
  36   22   45 1
  37   23   24 2
  38   23   25 1
  39   25   26 1
  40   25   46 1
  41   25   47 1
  42   26   27 ar
  43   26   31 ar
  44   27   28 ar
  45   27   48 1
  46   28   29 ar
  47   28   49 1
  48   29   30 ar
  49   30   31 ar
  50   30   50 1
  51   31   51 1
  52   32   33 1
  53   32   52 1
  54   32   53 1
  55   33   34 1
  56   34   35 1
  57   34   54 1
  58   34   55 1
  59   35   56 1
  60   35   57 1

#	End of record

