#	Name: ASD01918160
#	Creating user name:	WinNT
#	Creation time:	15. 06. 2019 20:10

#	Modifying user name:	WinNT
#	Modification time:	15. 06. 2019 20:10

#	Program:	/corina/corina34_cracker 3.40 0067  02.08.2006

@<TRIPOS>MOLECULE
ASD01918160
  55   58    0    0    0
SMALL
NO_CHARGES


@<TRIPOS>ATOM
   1 Cl1            0.0000     0.0000     0.0000 Cl      
   2 H2             0.0000     1.3700     0.0000 H       
   3 C3            13.0791    13.3620    14.5374 C.3     
   4 C4            12.2500    12.1794    15.0425 C.3     
   5 C5            12.1615    11.1308    13.9638 C.ar    
   6 C6            12.5518     9.8348    14.2401 C.ar    
   7 C7            12.4687     8.8703    13.2440 C.ar    
   8 C8            11.9943     9.2444    12.0004 C.ar    
   9 C9            11.6172    10.5715    11.7898 C.ar    
  10 N10           11.7077    11.4617    12.7711 N.ar    
  11 C11           11.1075    10.9885    10.4651 C.2     
  12 C12           11.7440    10.6776     9.2805 C.2     
  13 N13           12.9199     9.9532     9.1231 N.am    
  14 C14           13.3557     9.6359     7.8878 C.2     
  15 O15           12.7218     9.9825     6.9135 O.2     
  16 C16           14.6305     8.8505     7.7171 C.3     
  17 H17           14.8320     8.1078     8.4890 H       
  18 C18           15.8301     9.5755     7.1039 C.3     
  19 C19           15.0730     8.5236     6.2894 C.3     
  20 H20           14.4421     8.8765     5.4737 H       
  21 C21           15.7650     7.1794     6.0547 C.3     
  22 S22           10.7777    11.3742     8.0403 S.3     
  23 N23            9.6046    12.0324     9.0708 N.2     
  24 C24            9.9334    11.7288    10.2971 C.2     
  25 C25            9.1073    12.1520    11.4526 C.ar    
  26 C26            8.8568    11.2379    12.4935 C.ar    
  27 C27            8.1092    11.5739    13.5702 C.ar    
  28 C28            7.5587    12.8713    13.6684 C.ar    
  29 N29            6.8088    13.4919    14.5609 N.2     
  30 N30            6.5643    14.7978    14.1217 N.pl3   
  31 C31            5.7691    15.7930    14.8452 C.3     
  32 C32            7.1650    15.0038    12.9417 C.2     
  33 C33            7.8146    13.8350    12.5863 C.ar    
  34 C34            8.6040    13.4344    11.4898 C.ar    
  35 H35           14.0815    13.0195    14.2806 H       
  36 H36           12.6034    13.7884    13.6543 H       
  37 H37           13.1431    14.1204    15.3176 H       
  38 H38           12.7256    11.7530    15.9257 H       
  39 H39           11.2475    12.5219    15.2993 H       
  40 H40           12.9186     9.5738    15.2218 H       
  41 H41           12.7684     7.8508    13.4365 H       
  42 H42           11.9170     8.5199    11.2031 H       
  43 H43           13.4268     9.6760     9.9022 H       
  44 H44           15.6974    10.6205     6.8239 H       
  45 H45           16.8210     9.3095     7.4721 H       
  46 H46           15.0932     6.3700     6.3405 H       
  47 H47           16.0225     7.0825     5.0000 H       
  48 H48           16.6725     7.1279     6.6564 H       
  49 H49            9.2717    10.2428    12.4309 H       
  50 H50            7.9333    10.8512    14.3532 H       
  51 H51            6.4176    16.3615    15.5118 H       
  52 H52            5.2979    16.4696    14.1323 H       
  53 H53            5.0000    15.2882    15.4299 H       
  54 H54            7.1451    15.9195    12.3694 H       
  55 H55            8.8095    14.1244    10.6848 H       
@<TRIPOS>BOND
   1    1    2 1
   2    3    4 1
   3    3   35 1
   4    3   36 1
   5    3   37 1
   6    4    5 1
   7    4   38 1
   8    4   39 1
   9    5   10 ar
  10    5    6 ar
  11    6    7 ar
  12    6   40 1
  13    7    8 ar
  14    7   41 1
  15    8    9 ar
  16    8   42 1
  17    9   10 ar
  18    9   11 1
  19   11   24 1
  20   11   12 2
  21   12   13 1
  22   12   22 1
  23   13   14 am
  24   13   43 1
  25   14   15 2
  26   14   16 1
  27   16   17 1
  28   16   19 1
  29   16   18 1
  30   18   19 1
  31   18   44 1
  32   18   45 1
  33   19   20 1
  34   19   21 1
  35   21   46 1
  36   21   47 1
  37   21   48 1
  38   22   23 1
  39   23   24 2
  40   24   25 1
  41   25   34 ar
  42   25   26 ar
  43   26   27 ar
  44   26   49 1
  45   27   28 ar
  46   27   50 1
  47   28   33 ar
  48   28   29 2
  49   29   30 1
  50   30   31 1
  51   30   32 1
  52   31   51 1
  53   31   52 1
  54   31   53 1
  55   32   33 2
  56   32   54 1
  57   33   34 ar
  58   34   55 1

#	End of record

