#	Name: ASD01913606
#	Creating user name:	WinNT
#	Creation time:	15. 06. 2019 20:01

#	Modifying user name:	WinNT
#	Modification time:	15. 06. 2019 20:01

#	Program:	/corina/corina34_cracker 3.40 0067  02.08.2006

@<TRIPOS>MOLECULE
ASD01913606
  36   38    0    0    0
SMALL
NO_CHARGES


@<TRIPOS>ATOM
   1 C1            -2.8066     0.2915    -1.2461 C.ar    
   2 C2            -2.3000    -0.1537    -0.0294 C.ar    
   3 C3            -3.0930    -0.0152     1.1052 C.ar    
   4 N4            -4.2920     0.5311     0.9876 N.ar    
   5 C5            -4.7367     0.9409    -0.1834 C.ar    
   6 N6            -4.0157     0.8270    -1.2807 N.ar    
   7 C7            -0.9758    -2.0621     0.1330 C.ar    
   8 C8             0.2623    -2.6940     0.2073 C.ar    
   9 C9             0.3137    -4.0736     0.2979 C.ar    
  10 N10           -0.7882    -4.7927     0.3143 N.ar    
  11 C11           -1.9906    -4.2322     0.2456 C.ar    
  12 C12           -2.1237    -2.8508     0.1531 C.ar    
  13 C13           -3.2008    -5.0862     0.2677 C.2     
  14 N14           -3.0790    -6.4254     0.3572 N.am    
  15 O15           -1.0625    -0.7101     0.0488 O.3     
  16 O16           -4.3035    -4.5792     0.2052 O.2     
  17 C17           -4.2161    -7.2219     0.4841 C.ar    
  18 C18           -4.0787    -8.5892     0.6930 C.ar    
  19 C19           -5.2150    -9.3692     0.8179 C.ar    
  20 C20           -6.4563    -8.7507     0.7290 C.ar    
  21 C21           -6.5177    -7.3847     0.5199 C.ar    
  22 N22           -5.4159    -6.6677     0.4100 N.ar    
  23 C23           -7.8598    -6.7064     0.4218 C.3     
  24 F24           -7.7585    -5.5911    -0.4167 F       
  25 F25           -7.5905    -9.4755     0.8449 F       
  26 F26           -8.7975    -7.6016    -0.1042 F       
  27 H27           -2.2195     0.2054    -2.1485 H       
  28 H28           -2.7351    -0.3491     2.0679 H       
  29 H29           -5.7202     1.3827    -0.2455 H       
  30 H30            1.1730    -2.1136     0.1940 H       
  31 H31            1.2723    -4.5676     0.3557 H       
  32 H32           -3.1020    -2.3967     0.0973 H       
  33 H33           -2.2001    -6.8351     0.3332 H       
  34 H34           -3.0980    -9.0371     0.7566 H       
  35 H35           -5.1389   -10.4342     0.9804 H       
  36 H36           -8.1790    -6.3872     1.4139 H       
@<TRIPOS>BOND
   1    1    2 ar
   2    1    6 ar
   3    1   27 1
   4    2    3 ar
   5    2   15 1
   6    3    4 ar
   7    3   28 1
   8    4    5 ar
   9    5    6 ar
  10    5   29 1
  11    7    8 ar
  12    7   12 ar
  13    7   15 1
  14    8    9 ar
  15    8   30 1
  16    9   10 ar
  17    9   31 1
  18   10   11 ar
  19   11   12 ar
  20   11   13 1
  21   12   32 1
  22   13   14 am
  23   13   16 2
  24   14   17 1
  25   14   33 1
  26   17   18 ar
  27   17   22 ar
  28   18   19 ar
  29   18   34 1
  30   19   20 ar
  31   19   35 1
  32   20   21 ar
  33   20   25 1
  34   21   22 ar
  35   21   23 1
  36   23   24 1
  37   23   26 1
  38   23   36 1

#	End of record

