#	Name: ASD01903157
#	Creating user name:	WinNT
#	Creation time:	15. 06. 2019 19:54

#	Modifying user name:	WinNT
#	Modification time:	15. 06. 2019 19:54

#	Program:	/corina/corina34_cracker 3.40 0067  02.08.2006

@<TRIPOS>MOLECULE
ASD01903157
  43   45    0    0    0
SMALL
NO_CHARGES


@<TRIPOS>ATOM
   1 C1             1.4893    -1.2629     2.1317 C.ar    
   2 C2             0.4795    -0.6002     1.4523 C.ar    
   3 C3             0.7872     0.5302     0.7117 C.ar    
   4 N4             2.0213     0.9795     0.6463 N.ar    
   5 C5             3.0173     0.3743     1.2819 C.ar    
   6 C6             2.7808    -0.7668     2.0448 C.ar    
   7 C7             4.3917     0.9171     1.1789 C.2     
   8 N8             4.6269     2.0209     0.4422 N.am    
   9 O9             5.3073     0.3671     1.7587 O.2     
  10 C10            5.9039     2.5901     0.4237 C.ar    
  11 C11            7.0290     1.7779     0.4858 C.ar    
  12 C12            8.2888     2.3433     0.4673 C.ar    
  13 C13            8.4310     3.7165     0.3871 C.ar    
  14 C14            7.3130     4.5280     0.3256 C.ar    
  15 C15            6.0503     3.9687     0.3374 C.ar    
  16 S16           10.0402     4.4338     0.3638 S.o2    
  17 O17            9.8718     5.8078     0.6843 O.2     
  18 O18           10.8799     3.5598     1.1057 O.2     
  19 N19           10.5777     4.3813    -1.2017 N.am    
  20 C20           10.3496     5.4633    -2.0550 C.ar    
  21 C21           11.2023     5.6967    -3.1265 C.ar    
  22 C22           10.9737     6.7672    -3.9685 C.ar    
  23 C23            9.8973     7.6063    -3.7460 C.ar    
  24 C24            9.0464     7.3769    -2.6803 C.ar    
  25 C25            9.2662     6.3051    -1.8375 C.ar    
  26 C26           11.2923     3.2000    -1.6917 C.3     
  27 H27            1.2743    -2.1433     2.7191 H       
  28 H28           -0.5373    -0.9612     1.4992 H       
  29 H29            0.0027     1.0489     0.1807 H       
  30 H30            3.5922    -1.2583     2.5611 H       
  31 H31            3.9102     2.4205    -0.0751 H       
  32 H32            6.9186     0.7054     0.5488 H       
  33 H33            9.1640     1.7123     0.5159 H       
  34 H34            7.4275     5.6001     0.2633 H       
  35 H35            5.1776     4.6030     0.2894 H       
  36 H36           12.0434     5.0419    -3.3006 H       
  37 H37           11.6364     6.9494    -4.8016 H       
  38 H38            9.7209     8.4430    -4.4058 H       
  39 H39            8.2067     8.0342    -2.5093 H       
  40 H40            8.6012     6.1263    -1.0056 H       
  41 H41           10.5776     2.4886    -2.1054 H       
  42 H42           11.9984     3.4980    -2.4667 H       
  43 H43           11.8327     2.7345    -0.8674 H       
@<TRIPOS>BOND
   1    1    2 ar
   2    1    6 ar
   3    1   27 1
   4    2    3 ar
   5    2   28 1
   6    3    4 ar
   7    3   29 1
   8    4    5 ar
   9    5    6 ar
  10    5    7 1
  11    6   30 1
  12    7    8 am
  13    7    9 2
  14    8   10 1
  15    8   31 1
  16   10   11 ar
  17   10   15 ar
  18   11   12 ar
  19   11   32 1
  20   12   13 ar
  21   12   33 1
  22   13   14 ar
  23   13   16 1
  24   14   15 ar
  25   14   34 1
  26   15   35 1
  27   16   17 2
  28   16   18 2
  29   16   19 am
  30   19   20 1
  31   19   26 1
  32   20   21 ar
  33   20   25 ar
  34   21   22 ar
  35   21   36 1
  36   22   23 ar
  37   22   37 1
  38   23   24 ar
  39   23   38 1
  40   24   25 ar
  41   24   39 1
  42   25   40 1
  43   26   41 1
  44   26   42 1
  45   26   43 1

#	End of record

