#	Name: ASD02408130
#	Creating user name:	WinNT
#	Creation time:	15. 06. 2019 20:21

#	Modifying user name:	WinNT
#	Modification time:	15. 06. 2019 20:21

#	Program:	/corina/corina34_cracker 3.40 0067  02.08.2006

@<TRIPOS>MOLECULE
ASD02408130
  46   49    0    0    0
SMALL
NO_CHARGES


@<TRIPOS>ATOM
   1 C1            -1.0566     1.6980     0.2338 C.ar    
   2 C2            -1.3036     0.3369     0.2277 C.ar    
   3 C3             0.2252     2.1690     0.0108 C.ar    
   4 C4             1.2579     1.2796    -0.2179 C.ar    
   5 C5             1.0104    -0.0807    -0.2239 C.ar    
   6 C6            -0.2698    -0.5518    -0.0012 C.ar    
   7 C7             0.4950     3.6517     0.0168 C.3     
   8 C8             0.7267     4.1144     1.4322 C.2     
   9 N9             0.9866     5.4169     1.6571 N.am    
  10 N10            0.6635     3.2406     2.3999 N.2     
  11 C11            0.8602     3.5944     3.6765 C.2     
  12 C12            1.1410     4.9364     3.9821 C.2     
  13 C13            1.1986     5.8660     2.9121 C.2     
  14 N14            0.7877     2.6554     4.6760 N.pl3   
  15 C15            0.1460     2.9751     5.9585 C.3     
  16 O16            1.4385     7.0427     3.1209 O.2     
  17 Cl17          -2.3557     2.8150     0.5141 Cl      
  18 C18           -0.9288     1.9226     6.2481 C.3     
  19 C19           -0.3025     0.5282     6.1846 C.3     
  20 C20            0.2638     0.2747     4.7861 C.3     
  21 C21            1.3450     1.3100     4.4811 C.3     
  22 O22            0.7471     0.4267     7.1549 O.3     
  23 C23            0.3982    -0.6471     8.0520 C.3     
  24 C24           -0.6043    -1.4865     7.2212 C.3     
  25 O25           -1.3046    -0.4588     6.4794 O.3     
  26 C26            1.3574     5.3547     5.3345 C.1     
  27 N27            1.5290     5.6865     6.4073 N.1     
  28 H28           -2.3037    -0.0313     0.4021 H       
  29 H29            2.2583     1.6472    -0.3924 H       
  30 H30            1.8178    -0.7754    -0.4027 H       
  31 H31           -0.4625    -1.6144    -0.0064 H       
  32 H32            1.3799     3.8624    -0.5838 H       
  33 H33           -0.3623     4.1787    -0.4020 H       
  34 H34            1.0220     6.0365     0.9117 H       
  35 H35            0.8920     2.9639     6.7531 H       
  36 H36           -0.3145     3.9614     5.9008 H       
  37 H37           -1.3435     2.0902     7.2421 H       
  38 H38           -1.7224     1.9991     5.5048 H       
  39 H39            0.6943    -0.7258     4.7439 H       
  40 H40           -0.5351     0.3587     4.0494 H       
  41 H41            1.6782     1.1971     3.4494 H       
  42 H42            2.1880     1.1680     5.1572 H       
  43 H43            1.2781    -1.2383     8.3057 H       
  44 H44           -0.0781    -0.2579     8.9519 H       
  45 H45           -0.0810    -2.1655     6.5481 H       
  46 H46           -1.2879    -2.0332     7.8707 H       
@<TRIPOS>BOND
   1    1    2 ar
   2    1    3 ar
   3    1   17 1
   4    2    6 ar
   5    2   28 1
   6    3    4 ar
   7    3    7 1
   8    4    5 ar
   9    4   29 1
  10    5    6 ar
  11    5   30 1
  12    6   31 1
  13    7    8 1
  14    7   32 1
  15    7   33 1
  16    8    9 1
  17    8   10 2
  18    9   13 am
  19    9   34 1
  20   10   11 1
  21   11   12 2
  22   11   14 1
  23   12   13 1
  24   12   26 1
  25   13   16 2
  26   14   15 1
  27   14   21 1
  28   15   18 1
  29   15   35 1
  30   15   36 1
  31   18   19 1
  32   18   37 1
  33   18   38 1
  34   19   20 1
  35   19   22 1
  36   19   25 1
  37   20   21 1
  38   20   39 1
  39   20   40 1
  40   21   41 1
  41   21   42 1
  42   22   23 1
  43   23   24 1
  44   23   43 1
  45   23   44 1
  46   24   25 1
  47   24   45 1
  48   24   46 1
  49   26   27 3

#	End of record

