#	Name: ASD04882260
#	Creating user name:	WinNT
#	Creation time:	15. 06. 2019 20:54

#	Modifying user name:	WinNT
#	Modification time:	15. 06. 2019 20:54

#	Program:	/corina/corina34_cracker 3.40 0067  02.08.2006

@<TRIPOS>MOLECULE
ASD04882260
  80   84    0    0    0
SMALL
NO_CHARGES


@<TRIPOS>ATOM
   1 N1            -0.0766     1.5238     0.3882 N.am    
   2 C2             0.0098     0.1441     0.6174 C.ar    
   3 C3            -1.1514    -0.6030     0.8333 C.ar    
   4 C4            -1.0673    -1.9720     1.0603 C.ar    
   5 C5             0.1600    -2.5967     1.0738 C.ar    
   6 C6             1.3252    -1.8554     0.8586 C.ar    
   7 C7             1.2429    -0.4799     0.6244 C.ar    
   8 N8            -2.3944     0.0247     0.8214 N.3     
   9 C9            -2.5325     0.9410     1.9620 C.3     
  10 C10           -3.4829    -0.9625     0.8078 C.3     
  11 C11           -4.8264    -0.2354     0.7147 C.3     
  12 N12           -4.9645     0.6809     1.8553 N.3     
  13 C13           -3.8760     1.6682     1.8689 C.3     
  14 C14            2.6398    -2.5248     0.8736 C.2     
  15 O15            3.6530    -1.8791     0.6863 O.2     
  16 C16           -6.2757     1.3431     1.8428 C.3     
  17 C17           -7.3485     0.3398     2.1798 C.ar    
  18 C18            0.9095     2.3400     0.8099 C.2     
  19 C19            0.8720     3.7747     0.4755 C.2     
  20 O20            1.8303     1.8925     1.4666 O.2     
  21 C21           -0.0832     4.4286    -0.2464 C.2     
  22 C22            1.8531     4.8018     0.8555 C.2     
  23 C23            1.4046     5.9523     0.3306 C.2     
  24 O24            0.2547     5.7196    -0.3212 O.3     
  25 N25            2.7178    -3.8520     1.0950 N.am    
  26 C26            4.0232    -4.5167     1.1099 C.3     
  27 C27            3.8319    -6.0104     1.3802 C.3     
  28 C28            2.0816     7.2928     0.4569 C.3     
  29 C29            5.1953    -6.7046     1.3958 C.3     
  30 N30            5.0121    -8.1348     1.6546 N.am    
  31 C31            4.8351    -9.0622     0.6977 C.2     
  32 C32            4.6693   -10.4298     1.3228 C.3     
  33 C33            4.3568   -10.1325     2.8078 C.3     
  34 C34            5.0045    -8.7402     2.9915 C.3     
  35 O35            4.8114    -8.8354    -0.4935 O.2     
  36 C36           -4.0407     2.5929     3.0767 C.3     
  37 C37           -8.1229    -0.2078     1.1748 C.ar    
  38 C38           -9.1072    -1.1284     1.4839 C.ar    
  39 C39           -9.3175    -1.5011     2.7982 C.ar    
  40 C40           -8.5437    -0.9536     3.8044 C.ar    
  41 C41           -7.5544    -0.0375     3.4951 C.ar    
  42 Cl42          -6.5820     0.6500     4.7582 Cl      
  43 H43           -0.8442     1.8910    -0.0776 H       
  44 H44           -1.9663    -2.5468     1.2268 H       
  45 H45            0.2221    -3.6602     1.2512 H       
  46 H46            2.1415     0.0954     0.4575 H       
  47 H47           -2.4898     0.3735     2.8916 H       
  48 H48           -1.7224     1.6700     1.9430 H       
  49 H49           -3.3656    -1.6213    -0.0526 H       
  50 H50           -3.4509    -1.5517     1.7243 H       
  51 H51           -4.8691     0.3321    -0.2149 H       
  52 H52           -5.6365    -0.9643     0.7337 H       
  53 H53           -3.9080     2.2573     0.9524 H       
  54 H54           -6.2844     2.1459     2.5801 H       
  55 H55           -6.4641     1.7575     0.8524 H       
  56 H56           -0.9626     3.9793    -0.6836 H       
  57 H57            2.7511     4.6593     1.4383 H       
  58 H58            1.9095    -4.3670     1.2444 H       
  59 H59            4.5108    -4.3816     0.1444 H       
  60 H60            4.6433    -4.0821     1.8940 H       
  61 H61            3.3444    -6.1454     2.3457 H       
  62 H62            3.2118    -6.4450     0.5961 H       
  63 H63            2.7743     7.4296    -0.3735 H       
  64 H64            1.3305     8.0824     0.4375 H       
  65 H65            2.6297     7.3358     1.3981 H       
  66 H66            5.6828    -6.5695     0.4303 H       
  67 H67            5.8153    -6.2700     2.1798 H       
  68 H68            3.8404   -10.9637     0.8581 H       
  69 H69            5.5916   -11.0039     1.2346 H       
  70 H70            3.2812   -10.0926     2.9797 H       
  71 H71            4.8276   -10.8680     3.4602 H       
  72 H72            6.0210    -8.8441     3.3710 H       
  73 H73            4.4073    -8.1332     3.6721 H       
  74 H74           -4.0077     2.0033     3.9929 H       
  75 H75           -3.2332     3.3250     3.0865 H       
  76 H76           -4.9984     3.1092     3.0111 H       
  77 H77           -7.9595     0.0835     0.1478 H       
  78 H78           -9.7122    -1.5561     0.6981 H       
  79 H79          -10.0867    -2.2199     3.0390 H       
  80 H80           -8.7087    -1.2443     4.8314 H       
@<TRIPOS>BOND
   1    1    2 1
   2    1   18 am
   3    1   43 1
   4    2    3 ar
   5    2    7 ar
   6    3    4 ar
   7    3    8 1
   8    4    5 ar
   9    4   44 1
  10    5    6 ar
  11    5   45 1
  12    6    7 ar
  13    6   14 1
  14    7   46 1
  15    8    9 1
  16    8   10 1
  17    9   13 1
  18    9   47 1
  19    9   48 1
  20   10   11 1
  21   10   49 1
  22   10   50 1
  23   11   12 1
  24   11   51 1
  25   11   52 1
  26   12   13 1
  27   12   16 1
  28   13   36 1
  29   13   53 1
  30   14   15 2
  31   14   25 am
  32   16   17 1
  33   16   54 1
  34   16   55 1
  35   17   37 ar
  36   17   41 ar
  37   18   20 2
  38   18   19 1
  39   19   21 2
  40   19   22 1
  41   21   24 1
  42   21   56 1
  43   22   23 2
  44   22   57 1
  45   23   24 1
  46   23   28 1
  47   25   26 1
  48   25   58 1
  49   26   27 1
  50   26   59 1
  51   26   60 1
  52   27   29 1
  53   27   61 1
  54   27   62 1
  55   28   63 1
  56   28   64 1
  57   28   65 1
  58   29   30 1
  59   29   66 1
  60   29   67 1
  61   30   31 am
  62   30   34 1
  63   31   32 1
  64   31   35 2
  65   32   33 1
  66   32   68 1
  67   32   69 1
  68   33   34 1
  69   33   70 1
  70   33   71 1
  71   34   72 1
  72   34   73 1
  73   36   74 1
  74   36   75 1
  75   36   76 1
  76   37   38 ar
  77   37   77 1
  78   38   39 ar
  79   38   78 1
  80   39   40 ar
  81   39   79 1
  82   40   41 ar
  83   40   80 1
  84   41   42 1

#	End of record

