#	Name: ASD03090711
#	Creating user name:	WinNT
#	Creation time:	15. 06. 2019 20:29

#	Modifying user name:	WinNT
#	Modification time:	15. 06. 2019 20:29

#	Program:	/corina/corina34_cracker 3.40 0067  02.08.2006

@<TRIPOS>MOLECULE
ASD03090711
  35   36    0    0    0
SMALL
NO_CHARGES


@<TRIPOS>ATOM
   1 N1            -0.0162     1.3436     0.0094 N.am    
   2 C2            -0.2047     0.1129    -0.5067 C.2     
   3 O3             0.6896    -0.4300    -1.1263 O.2     
   4 N4            -1.3844    -0.5161    -0.3359 N.am    
   5 O5            -2.5258    -3.5786    -1.3518 O.3     
   6 N6            -2.6616    -2.5183    -0.7869 N.2     
   7 C7            -1.5794    -1.7897    -0.8700 C.2     
   8 C8            -0.6424    -2.5549    -1.6141 C.2     
   9 C9            -1.3070    -3.6981    -1.8979 C.2     
  10 C10           -0.7805    -4.8763    -2.6762 C.3     
  11 F11           -0.1699    -5.7792    -1.7991 F       
  12 C12            1.2483     1.9482    -0.0618 C.ar    
  13 C13            1.3531     3.3291    -0.2086 C.ar    
  14 C14            2.6019     3.9239    -0.2782 C.ar    
  15 C15            3.7461     3.1443    -0.2016 C.ar    
  16 C16            3.6409     1.7675    -0.0556 C.ar    
  17 C17            2.3945     1.1717     0.0199 C.ar    
  18 O18            4.9725     3.7287    -0.2699 O.3     
  19 C19            5.0067     5.1493    -0.4206 C.3     
  20 O20            0.2302     4.0929    -0.2841 O.3     
  21 C21            0.4130     5.5022    -0.4344 C.3     
  22 F22            4.7568     1.0095     0.0184 F       
  23 H23           -0.7555     1.8130     0.4265 H       
  24 H24           -2.0978    -0.0830     0.1584 H       
  25 H25            0.3666    -2.2860    -1.8898 H       
  26 H26           -1.6052    -5.3701    -3.1900 H       
  27 H27           -0.0506    -4.5311    -3.4085 H       
  28 H28            2.6846     4.9947    -0.3924 H       
  29 H29            2.3141     0.1012     0.1379 H       
  30 H30            6.0428     5.4855    -0.4617 H       
  31 H31            4.4971     5.4293    -1.3426 H       
  32 H32            4.5064     5.6168     0.4274 H       
  33 H33            0.9733     5.8887     0.4169 H       
  34 H34            0.9647     5.7011    -1.3531 H       
  35 H35           -0.5598     5.9918    -0.4816 H       
@<TRIPOS>BOND
   1    1    2 am
   2    1   12 1
   3    1   23 1
   4    2    3 2
   5    2    4 am
   6    4    7 1
   7    4   24 1
   8    5    6 1
   9    5    9 1
  10    6    7 2
  11    7    8 1
  12    8    9 2
  13    8   25 1
  14    9   10 1
  15   10   11 1
  16   10   26 1
  17   10   27 1
  18   12   13 ar
  19   12   17 ar
  20   13   14 ar
  21   13   20 1
  22   14   15 ar
  23   14   28 1
  24   15   16 ar
  25   15   18 1
  26   16   17 ar
  27   16   22 1
  28   17   29 1
  29   18   19 1
  30   19   30 1
  31   19   31 1
  32   19   32 1
  33   20   21 1
  34   21   33 1
  35   21   34 1
  36   21   35 1

#	End of record

