#	Name: ASD01200302
#	Creating user name:	WinNT
#	Creation time:	15. 06. 2019 19:08

#	Modifying user name:	WinNT
#	Modification time:	15. 06. 2019 19:08

#	Program:	/corina/corina34_cracker 3.40 0067  02.08.2006

@<TRIPOS>MOLECULE
ASD01200302
  45   45    0    0    0
SMALL
NO_CHARGES


@<TRIPOS>ATOM
   1 C1            -0.0211     1.7054     0.0114 C.2     
   2 S2             0.0021    -0.0041     0.0020 S.3     
   3 C3            -1.7592    -0.0386     0.0193 C.2     
   4 C4            -2.1977     1.2214     0.0304 C.2     
   5 N5            -1.2441     2.1344     0.0310 N.2     
   6 C6            -3.6628     1.5739     0.0464 C.3     
   7 P7            -4.2371     1.7066     1.7715 P.3     
   8 O8            -3.9238     0.4532     2.4935 O.2     
   9 O9            -3.4943     2.9405     2.4910 O.3     
  10 C10           -3.6522     3.2417     3.8789 C.3     
  11 C11           -2.8115     4.4700     4.2331 C.3     
  12 O12           -5.8280     1.9532     1.7900 O.3     
  13 C13           -6.5949     1.9967     2.9950 C.3     
  14 C14           -8.0654     2.2472     2.6549 C.3     
  15 N15            1.1074     2.5171     0.0050 N.am    
  16 O16            3.4290     2.7492    -0.0164 O.3     
  17 C17            4.7195     2.0838    -0.0329 C.3     
  18 C18            4.8300     1.2162    -1.2882 C.3     
  19 C19            5.8338     3.1322    -0.0378 C.3     
  20 C20            4.8545     1.2019     1.2101 C.3     
  21 C21            2.3360     1.9630    -0.0102 C.2     
  22 O22            2.4571     0.7541    -0.0183 O.2     
  23 H23           -2.3763    -0.9250     0.0204 H       
  24 H24           -3.8127     2.5270    -0.4608 H       
  25 H25           -4.2291     0.7964    -0.4663 H       
  26 H26           -4.7019     3.4470     4.0891 H       
  27 H27           -3.3219     2.3911     4.4752 H       
  28 H28           -1.7619     4.2648     4.0230 H       
  29 H29           -3.1419     5.3206     3.6369 H       
  30 H30           -2.9320     4.6997     5.2918 H       
  31 H31           -6.5002     1.0464     3.5204 H       
  32 H32           -6.2268     2.8018     3.6310 H       
  33 H33           -8.4335     1.4421     2.0189 H       
  34 H34           -8.6504     2.2804     3.5740 H       
  35 H35           -8.1601     3.1975     2.1294 H       
  36 H36            1.0107     3.4823     0.0115 H       
  37 H37            4.7338     1.8445    -2.1737 H       
  38 H38            5.7987     0.7167    -1.3006 H       
  39 H39            4.0361     0.4693    -1.2847 H       
  40 H40            5.7551     3.7503     0.8566 H       
  41 H41            6.8026     2.6327    -0.0501 H       
  42 H42            5.7377     3.7605    -0.9233 H       
  43 H43            4.0606     0.4550     1.2136 H       
  44 H44            5.8232     0.7024     1.1977 H       
  45 H45            4.7758     1.8200     2.1044 H       
@<TRIPOS>BOND
   1    1    2 1
   2    1   15 1
   3    1    5 2
   4    2    3 1
   5    3    4 2
   6    3   23 1
   7    4    5 1
   8    4    6 1
   9    6    7 1
  10    6   24 1
  11    6   25 1
  12    7    8 2
  13    7    9 1
  14    7   12 1
  15    9   10 1
  16   10   11 1
  17   10   26 1
  18   10   27 1
  19   11   28 1
  20   11   29 1
  21   11   30 1
  22   12   13 1
  23   13   14 1
  24   13   31 1
  25   13   32 1
  26   14   33 1
  27   14   34 1
  28   14   35 1
  29   15   21 am
  30   15   36 1
  31   16   17 1
  32   16   21 1
  33   17   18 1
  34   17   19 1
  35   17   20 1
  36   18   37 1
  37   18   38 1
  38   18   39 1
  39   19   40 1
  40   19   41 1
  41   19   42 1
  42   20   43 1
  43   20   44 1
  44   20   45 1
  45   21   22 2

#	End of record

