#	Name: ASD04590369
#	Creating user name:	WinNT
#	Creation time:	15. 06. 2019 20:50

#	Modifying user name:	WinNT
#	Modification time:	15. 06. 2019 20:50

#	Program:	/corina/corina34_cracker 3.40 0067  02.08.2006

@<TRIPOS>MOLECULE
ASD04590369
  39   42    0    0    0
SMALL
NO_CHARGES


@<TRIPOS>ATOM
   1 C1            -0.0167     1.3834     0.0096 C.ar    
   2 C2             0.0021    -0.0041     0.0020 C.ar    
   3 C3             1.1863    -0.6848    -0.0125 C.ar    
   4 C4             2.3948     0.0191    -0.0202 C.ar    
   5 C5             2.3756     1.4250    -0.0129 C.ar    
   6 C6             1.1624     2.0987     0.0022 C.ar    
   7 N7             3.6952    -0.3636    -0.0343 N.2     
   8 C8             4.4665     0.6967    -0.0361 C.2     
   9 N9             3.6970     1.8290    -0.0232 N.pl3   
  10 C10            5.9437     0.6731    -0.0505 C.2     
  11 C11            6.7566    -0.4840    -0.0649 C.2     
  12 C12            8.0504    -0.0800    -0.0750 C.2     
  13 N13            8.0626     1.2789    -0.0674 N.pl3   
  14 N14            6.7358     1.7273    -0.0579 N.2     
  15 N15            6.3043    -1.8134    -0.0681 N.am    
  16 C16            7.1922    -2.8273    -0.0824 C.2     
  17 C17            6.7171    -4.2239    -0.0858 C.ar    
  18 O18            8.3851    -2.5907    -0.0926 O.2     
  19 C19            6.5022    -4.8968     1.1218 C.ar    
  20 C20            6.0565    -6.2051     1.1094 C.ar    
  21 C21            5.8235    -6.8492    -0.0922 C.ar    
  22 C22            6.0338    -6.1916    -1.2906 C.ar    
  23 C23            6.4734    -4.8812    -1.2966 C.ar    
  24 F24            6.6778    -4.2405    -2.4683 F       
  25 F25            6.7300    -4.2698     2.2966 F       
  26 C26            1.1905    -2.1918    -0.0196 C.3     
  27 H27           -0.9614     1.9069     0.0169 H       
  28 H28           -0.9290    -0.5513     0.0080 H       
  29 H29            1.1417     3.1785     0.0079 H       
  30 H30            4.0192     2.7439    -0.0221 H       
  31 H31            8.9175    -0.7237    -0.0870 H       
  32 H32            8.8532     1.8409    -0.0715 H       
  33 H33            5.3529    -2.0021    -0.0600 H       
  34 H34            5.8901    -6.7261     2.0407 H       
  35 H35            5.4757    -7.8716    -0.0946 H       
  36 H36            5.8501    -6.7022    -2.2244 H       
  37 H37            1.1818    -2.5503    -1.0489 H       
  38 H38            2.0864    -2.5550     0.4840 H       
  39 H39            0.3065    -2.5601     0.5009 H       
@<TRIPOS>BOND
   1    1    2 ar
   2    1    6 ar
   3    1   27 1
   4    2    3 ar
   5    2   28 1
   6    3    4 ar
   7    3   26 1
   8    4    5 ar
   9    4    7 1
  10    5    6 ar
  11    5    9 1
  12    6   29 1
  13    7    8 2
  14    8    9 1
  15    8   10 1
  16    9   30 1
  17   10   11 1
  18   10   14 2
  19   11   12 2
  20   11   15 1
  21   12   13 1
  22   12   31 1
  23   13   14 1
  24   13   32 1
  25   15   16 am
  26   15   33 1
  27   16   17 1
  28   16   18 2
  29   17   19 ar
  30   17   23 ar
  31   19   20 ar
  32   19   25 1
  33   20   21 ar
  34   20   34 1
  35   21   22 ar
  36   21   35 1
  37   22   23 ar
  38   22   36 1
  39   23   24 1
  40   26   37 1
  41   26   38 1
  42   26   39 1

#	End of record

