#	Name: ASD01914390
#	Creating user name:	WinNT
#	Creation time:	15. 06. 2019 20:03

#	Modifying user name:	WinNT
#	Modification time:	15. 06. 2019 20:03

#	Program:	/corina/corina34_cracker 3.40 0067  02.08.2006

@<TRIPOS>MOLECULE
ASD01914390
  45   47    0    0    0
SMALL
NO_CHARGES


@<TRIPOS>ATOM
   1 C1            -0.0167     1.3786     0.0096 C.ar    
   2 C2             0.0021    -0.0041     0.0020 C.ar    
   3 C3             1.2073    -0.6819    -0.0131 C.ar    
   4 C4             2.3963     0.0209    -0.0202 C.ar    
   5 C5             2.3807     1.4090    -0.0126 C.ar    
   6 C6             1.1692     2.0867     0.0021 C.ar    
   7 N7             3.5860     2.1251    -0.0193 N.pl3   
   8 C8             4.6539     1.9256     0.8149 C.2     
   9 C9             5.6004     2.8336     0.4614 C.2     
  10 C10            6.9347     2.9941     1.0901 C.ar    
  11 C11            7.8125     3.9720     0.6255 C.ar    
  12 C12            9.0522     4.1188     1.2120 C.ar    
  13 C13            9.4262     3.2935     2.2636 C.ar    
  14 C14            8.5542     2.3187     2.7286 C.ar    
  15 C15            7.3107     2.1712     2.1502 C.ar    
  16 N16            5.1125     3.5629    -0.5627 N.2     
  17 C17            3.9144     3.1423    -0.8585 C.2     
  18 C18            3.0355     3.6965    -1.9500 C.3     
  19 C19            2.1922     4.8160    -1.3962 C.2     
  20 O20            2.2945     5.1314    -0.2343 O.2     
  21 O21            1.3276     5.4627    -2.1936 O.3     
  22 C22            0.5482     6.5302    -1.5925 C.3     
  23 C23           -0.3739     7.1448    -2.6474 C.3     
  24 O24           10.6488     3.4400     2.8389 O.3     
  25 C25           10.9687     2.5574     3.9163 C.3     
  26 H26           -0.9595     1.9052     0.0169 H       
  27 H27           -0.9264    -0.5557     0.0083 H       
  28 H28            1.2188    -1.7618    -0.0190 H       
  29 H29            3.3373    -0.5091    -0.0313 H       
  30 H30            1.1539     3.1666     0.0077 H       
  31 H31            4.7289     1.1891     1.6013 H       
  32 H32            7.5223     4.6139    -0.1931 H       
  33 H33            9.7328     4.8763     0.8524 H       
  34 H34            8.8480     1.6781     3.5469 H       
  35 H35            6.6327     1.4125     2.5124 H       
  36 H36            3.6581     4.0770    -2.7598 H       
  37 H37            2.3871     2.9072    -2.3304 H       
  38 H38           -0.0514     6.1270    -0.7763 H       
  39 H39            1.2196     7.2968    -1.2057 H       
  40 H40            0.2257     7.5480    -3.4635 H       
  41 H41           -1.0453     6.3781    -3.0341 H       
  42 H42           -0.9590     7.9461    -2.1961 H       
  43 H43           10.2476     2.6919     4.7225 H       
  44 H44           10.9322     1.5264     3.5645 H       
  45 H45           11.9704     2.7807     4.2837 H       
@<TRIPOS>BOND
   1    1    2 ar
   2    1    6 ar
   3    1   26 1
   4    2    3 ar
   5    2   27 1
   6    3    4 ar
   7    3   28 1
   8    4    5 ar
   9    4   29 1
  10    5    6 ar
  11    5    7 1
  12    6   30 1
  13    7    8 1
  14    7   17 1
  15    8    9 2
  16    8   31 1
  17    9   10 1
  18    9   16 1
  19   10   11 ar
  20   10   15 ar
  21   11   12 ar
  22   11   32 1
  23   12   13 ar
  24   12   33 1
  25   13   14 ar
  26   13   24 1
  27   14   15 ar
  28   14   34 1
  29   15   35 1
  30   16   17 2
  31   17   18 1
  32   18   19 1
  33   18   36 1
  34   18   37 1
  35   19   20 2
  36   19   21 1
  37   21   22 1
  38   22   23 1
  39   22   38 1
  40   22   39 1
  41   23   40 1
  42   23   41 1
  43   23   42 1
  44   24   25 1
  45   25   43 1
  46   25   44 1
  47   25   45 1

#	End of record

