#	Name: ASD02500089
#	Creating user name:	WinNT
#	Creation time:	15. 06. 2019 20:22

#	Modifying user name:	WinNT
#	Modification time:	15. 06. 2019 20:22

#	Program:	/corina/corina34_cracker 3.40 0067  02.08.2006

@<TRIPOS>MOLECULE
ASD02500089
  48   51    0    0    0
SMALL
NO_CHARGES


@<TRIPOS>ATOM
   1 N1             0.3468     1.2435    -0.2039 N.am    
   2 N2            -2.2745    -6.2588    -3.1030 N.3     
   3 C3            -2.1171    -6.8967    -1.7891 C.3     
   4 C4            -0.7722    -6.4833    -1.1821 C.3     
   5 N5            -0.6951    -5.0145    -1.1736 N.am    
   6 C6            -0.9767    -4.2957    -2.4255 C.3     
   7 C7            -2.3136    -4.7952    -2.9835 C.3     
   8 C8            -0.3754    -4.3451    -0.0484 C.2     
   9 O9            -0.2427    -4.9466     1.0000 O.2     
  10 C10           -0.1866    -2.8833    -0.0887 C.ar    
  11 C11           -0.8623    -2.0634     0.8222 C.ar    
  12 C12           -0.6831    -0.6981     0.7812 C.ar    
  13 C13            0.1684    -0.1350    -0.1647 C.ar    
  14 C14            0.8418    -0.9485    -1.0721 C.ar    
  15 C15            0.6722    -2.3135    -1.0333 C.ar    
  16 S16            1.8731     1.8783    -0.3035 S.o2    
  17 C17            2.7276     1.4150     1.1661 C.ar    
  18 O18            2.5196     1.2028    -1.3735 O.2     
  19 O19            1.7243     3.2906    -0.2528 O.2     
  20 C20            2.2932     1.8918     2.4149 C.ar    
  21 C21            2.9968     1.5052     3.5827 C.ar    
  22 C22            4.1098     0.6566     3.4730 C.ar    
  23 C23            4.5007     0.2146     2.2458 C.ar    
  24 C24            3.8076     0.5895     1.0969 C.ar    
  25 N25            1.2327     2.6997     2.5141 N.ar    
  26 C26            0.8236     3.1476     3.6762 C.ar    
  27 C27            1.4699     2.8061     4.8624 C.ar    
  28 C28            2.5600     1.9838     4.8325 C.ar    
  29 Ar29          -3.9013    -6.9450    -4.0426 Du      
  30 Cl30          -1.9250    -2.7656     2.0017 Cl      
  31 H31           -0.4229     1.8331    -0.1769 H       
  32 H32           -2.9261    -6.5790    -1.1313 H       
  33 H33           -2.1462    -7.9801    -1.9049 H       
  34 H34           -0.6998    -6.8596    -0.1617 H       
  35 H35            0.0412    -6.8891    -1.7836 H       
  36 H36           -1.0396    -3.2257    -2.2272 H       
  37 H37           -0.1830    -4.4912    -3.1465 H       
  38 H38           -2.4853    -4.3546    -3.9656 H       
  39 H39           -3.1199    -4.5067    -2.3091 H       
  40 H40           -1.2039    -0.0642     1.4835 H       
  41 H41            1.5015    -0.5079    -1.8049 H       
  42 H42            1.1951    -2.9433    -1.7377 H       
  43 H43            4.6531     0.3564     4.3569 H       
  44 H44            5.3570    -0.4382     2.1624 H       
  45 H45            4.1371     0.2253     0.1350 H       
  46 H46           -0.0371     3.7987     3.7152 H       
  47 H47            1.1093     3.1914     5.8047 H       
  48 H48            3.0728     1.7087     5.7422 H       
@<TRIPOS>BOND
   1    1   13 1
   2    1   16 am
   3    1   31 1
   4    2    3 1
   5    2   29 1
   6    2    7 1
   7    3    4 1
   8    3   32 1
   9    3   33 1
  10    4    5 1
  11    4   34 1
  12    4   35 1
  13    5    6 1
  14    5    8 am
  15    6    7 1
  16    6   36 1
  17    6   37 1
  18    7   38 1
  19    7   39 1
  20    8    9 2
  21    8   10 1
  22   10   11 ar
  23   10   15 ar
  24   11   12 ar
  25   11   30 1
  26   12   13 ar
  27   12   40 1
  28   13   14 ar
  29   14   15 ar
  30   14   41 1
  31   15   42 1
  32   16   17 1
  33   16   18 2
  34   16   19 2
  35   17   20 ar
  36   17   24 ar
  37   20   21 ar
  38   20   25 ar
  39   21   22 ar
  40   21   28 ar
  41   22   23 ar
  42   22   43 1
  43   23   24 ar
  44   23   44 1
  45   24   45 1
  46   25   26 ar
  47   26   27 ar
  48   26   46 1
  49   27   28 ar
  50   27   47 1
  51   28   48 1

#	End of record

