#	Name: ASD01883446
#	Creating user name:	WinNT
#	Creation time:	15. 06. 2019 19:46

#	Modifying user name:	WinNT
#	Modification time:	15. 06. 2019 19:46

#	Program:	/corina/corina34_cracker 3.40 0067  02.08.2006

@<TRIPOS>MOLECULE
ASD01883446
  55   57    0    0    0
SMALL
NO_CHARGES


@<TRIPOS>ATOM
   1 N1            -0.0080     1.3271     0.0354 N.am    
   2 C2            -0.3621     0.6466    -1.0706 C.2     
   3 C3            -1.5935    -0.0493    -1.1068 C.2     
   4 C4            -2.4239    -0.0108     0.0261 C.2     
   5 C5            -1.9984     0.7180     1.1521 C.2     
   6 C6            -0.8095     1.3591     1.1317 C.2     
   7 O7             0.3773     0.6300    -2.0401 O.2     
   8 C8            -1.9862    -0.7780    -2.2753 C.1     
   9 N9            -2.2977    -1.3561    -3.2022 N.1     
  10 N10           -3.6309    -0.6732     0.0341 N.pl3   
  11 C11           -3.6824    -2.1368    -0.0840 C.3     
  12 C12           -4.4978    -2.6973     1.0855 C.3     
  13 C13           -5.8700    -2.0205     1.1162 C.3     
  14 C14           -5.6936    -0.5152     1.3280 C.3     
  15 C15           -4.8915     0.0697     0.1669 C.3     
  16 C16            1.2701     2.0428     0.0594 C.3     
  17 C17            1.0646     3.4709    -0.4495 C.3     
  18 C18            2.3994     4.2183    -0.4244 C.3     
  19 C19            3.3658     3.5698    -1.4176 C.3     
  20 C20            2.1727     5.6804    -0.8140 C.3     
  21 N21           -7.0088     0.1275     1.3886 N.pl3   
  22 C22           -7.7077     0.1753     2.5970 C.ar    
  23 C23           -8.9548     0.7843     2.6562 C.ar    
  24 C24           -9.6434     0.8293     3.8525 C.ar    
  25 C25           -9.0927     0.2691     4.9906 C.ar    
  26 C26           -7.8514    -0.3379     4.9351 C.ar    
  27 C27           -7.1598    -0.3912     3.7409 C.ar    
  28 H28           -2.6206     0.7617     2.0339 H       
  29 H29           -0.4935     1.9153     2.0018 H       
  30 H30           -4.1580    -2.4109    -1.0256 H       
  31 H31           -2.6709    -2.5418    -0.0516 H       
  32 H32           -4.6251    -3.7723     0.9580 H       
  33 H33           -3.9743    -2.5009     2.0212 H       
  34 H34           -6.3829    -2.1966     0.1706 H       
  35 H35           -6.4613    -2.4353     1.9325 H       
  36 H36           -5.1589    -0.3393     2.2614 H       
  37 H37           -4.6789     1.1207     0.3625 H       
  38 H38           -5.4636    -0.0239    -0.7562 H       
  39 H39            1.6509     2.0721     1.0803 H       
  40 H40            1.9866     1.5284    -0.5810 H       
  41 H41            0.6838     3.4416    -1.4704 H       
  42 H42            0.3481     3.9853     0.1909 H       
  43 H43            2.8234     4.1711     0.5787 H       
  44 H44            4.3168     4.1022    -1.3997 H       
  45 H45            3.5274     2.5282    -1.1400 H       
  46 H46            2.9419     3.6169    -2.4206 H       
  47 H47            1.4842     6.1424    -0.1065 H       
  48 H48            3.1237     6.2128    -0.7961 H       
  49 H49            1.7487     5.7275    -1.8171 H       
  50 H50           -7.3941     0.5198     0.5896 H       
  51 H51           -9.3853     1.2223     1.7679 H       
  52 H52          -10.6128     1.3029     3.8994 H       
  53 H53           -9.6331     0.3060     5.9249 H       
  54 H54           -7.4242    -0.7745     5.8258 H       
  55 H55           -6.1906    -0.8657     3.6982 H       
@<TRIPOS>BOND
   1    1    2 am
   2    1   16 1
   3    1    6 1
   4    2    3 1
   5    2    7 2
   6    3    4 2
   7    3    8 1
   8    4    5 1
   9    4   10 1
  10    5    6 2
  11    5   28 1
  12    6   29 1
  13    8    9 3
  14   10   11 1
  15   10   15 1
  16   11   12 1
  17   11   30 1
  18   11   31 1
  19   12   13 1
  20   12   32 1
  21   12   33 1
  22   13   14 1
  23   13   34 1
  24   13   35 1
  25   14   15 1
  26   14   21 1
  27   14   36 1
  28   15   37 1
  29   15   38 1
  30   16   17 1
  31   16   39 1
  32   16   40 1
  33   17   18 1
  34   17   41 1
  35   17   42 1
  36   18   19 1
  37   18   20 1
  38   18   43 1
  39   19   44 1
  40   19   45 1
  41   19   46 1
  42   20   47 1
  43   20   48 1
  44   20   49 1
  45   21   22 1
  46   21   50 1
  47   22   23 ar
  48   22   27 ar
  49   23   24 ar
  50   23   51 1
  51   24   25 ar
  52   24   52 1
  53   25   26 ar
  54   25   53 1
  55   26   27 ar
  56   26   54 1
  57   27   55 1

#	End of record

