#	Name: ASD08150346
#	Creating user name:	WinNT
#	Creation time:	15. 06. 2019 21:15

#	Modifying user name:	WinNT
#	Modification time:	15. 06. 2019 21:15

#	Program:	/corina/corina34_cracker 3.40 0067  02.08.2006

@<TRIPOS>MOLECULE
ASD08150346
  51   56    0    0    0
SMALL
NO_CHARGES


@<TRIPOS>ATOM
   1 C1             1.1412    -0.2062     1.0429 C.3     
   2 N2             1.6504    -4.3418    -1.5679 N.am    
   3 C3             2.7514    -4.3697    -2.3437 C.2     
   4 C4             2.7422    -5.0290    -3.5897 C.2     
   5 C5             1.6162    -5.6484    -4.0265 C.2     
   6 C6             0.4561    -5.6214    -3.2127 C.ar    
   7 C7            -0.7376    -6.2482    -3.6182 C.ar    
   8 N8            -1.8062    -6.2222    -2.8653 N.ar    
   9 C9            -1.8303    -5.6041    -1.6748 C.ar    
  10 C10           -0.6740    -4.9468    -1.1867 C.ar    
  11 C11            0.4988    -4.9562    -1.9777 C.ar    
  12 C12           -0.7097    -4.3048     0.0549 C.ar    
  13 C13           -1.8799    -4.3187     0.7967 C.ar    
  14 C14           -3.0200    -4.9716     0.3074 C.ar    
  15 C15           -3.0007    -5.6004    -0.8983 C.ar    
  16 O16            3.7693    -3.8169    -1.9632 O.2     
  17 C17           -1.9264    -3.6402     2.1146 C.ar    
  18 C18            1.6866    -3.6847    -0.3317 C.ar    
  19 C19            2.0015    -4.3907     0.8222 C.ar    
  20 C20            2.0366    -3.7410     2.0400 C.ar    
  21 C21            1.7580    -2.3860     2.1114 C.ar    
  22 C22            1.4439    -1.6803     0.9622 C.ar    
  23 C23            1.4133    -2.3253    -0.2588 C.ar    
  24 F24            1.7925    -1.7522     3.3040 F       
  25 C25           -1.2311    -2.4371     2.3155 C.ar    
  26 N26           -1.2547    -1.8164     3.4676 N.ar    
  27 C27           -1.9413    -2.2963     4.5100 C.ar    
  28 C28           -2.6694    -3.5065     4.3863 C.ar    
  29 C29           -2.6620    -4.1867     3.1564 C.ar    
  30 C30           -1.9541    -1.6155     5.7398 C.ar    
  31 C31           -2.6599    -2.1234     6.7868 C.ar    
  32 C32           -3.3745    -3.3134     6.6632 C.ar    
  33 C33           -3.3869    -4.0013     5.4885 C.ar    
  34 H34            2.0637     0.3613     0.9204 H       
  35 H35            0.4405     0.0646     0.2531 H       
  36 H36            0.7005     0.0216     2.0134 H       
  37 H37            3.6340    -5.0411    -4.1988 H       
  38 H38            1.6043    -6.1541    -4.9807 H       
  39 H39           -0.7714    -6.7597    -4.5689 H       
  40 H40            0.1683    -3.8022     0.4329 H       
  41 H41           -3.9255    -4.9755     0.8959 H       
  42 H42           -3.8883    -6.0981    -1.2601 H       
  43 H43            2.2184    -5.4473     0.7670 H       
  44 H44            2.2811    -4.2896     2.9375 H       
  45 H45            1.1729    -1.7735    -1.1555 H       
  46 H46           -0.6631    -2.0140     1.5002 H       
  47 H47           -3.2059    -5.1109     3.0284 H       
  48 H48           -1.4053    -0.6923     5.8536 H       
  49 H49           -2.6659    -1.5958     7.7291 H       
  50 H50           -3.9260    -3.6945     7.5100 H       
  51 H51           -3.9447    -4.9223     5.4044 H       
@<TRIPOS>BOND
   1    1   22 1
   2    1   34 1
   3    1   35 1
   4    1   36 1
   5    2    3 am
   6    2   11 1
   7    2   18 1
   8    3    4 1
   9    3   16 2
  10    4    5 2
  11    4   37 1
  12    5    6 1
  13    5   38 1
  14    6    7 ar
  15    6   11 ar
  16    7    8 ar
  17    7   39 1
  18    8    9 ar
  19    9   10 ar
  20    9   15 ar
  21   10   11 ar
  22   10   12 ar
  23   12   13 ar
  24   12   40 1
  25   13   14 ar
  26   13   17 1
  27   14   15 ar
  28   14   41 1
  29   15   42 1
  30   17   25 ar
  31   17   29 ar
  32   18   19 ar
  33   18   23 ar
  34   19   20 ar
  35   19   43 1
  36   20   21 ar
  37   20   44 1
  38   21   22 ar
  39   21   24 1
  40   22   23 ar
  41   23   45 1
  42   25   26 ar
  43   25   46 1
  44   26   27 ar
  45   27   28 ar
  46   27   30 ar
  47   28   29 ar
  48   28   33 ar
  49   29   47 1
  50   30   31 ar
  51   30   48 1
  52   31   32 ar
  53   31   49 1
  54   32   33 ar
  55   32   50 1
  56   33   51 1

#	End of record

