#	Name: ASD01810541
#	Creating user name:	WinNT
#	Creation time:	15. 06. 2019 19:24

#	Modifying user name:	WinNT
#	Modification time:	15. 06. 2019 19:24

#	Program:	/corina/corina34_cracker 3.40 0067  02.08.2006

@<TRIPOS>MOLECULE
ASD01810541
  63   67    0    0    0
SMALL
NO_CHARGES


@<TRIPOS>ATOM
   1 C1             0.1026     1.6281     0.4712 C.ar    
   2 N2             0.0658     0.4154    -0.0654 N.ar    
   3 C3             1.1740    -0.2751    -0.2563 C.ar    
   4 C4             2.4002     0.2911     0.1170 C.ar    
   5 C5             2.3945     1.5741     0.6801 C.ar    
   6 N6             1.2428     2.1988     0.8377 N.ar    
   7 C7             3.6640    -0.4446    -0.0775 C.2     
   8 O8             3.6506    -1.5574    -0.5674 O.2     
   9 N9             4.8336     0.1168     0.2879 N.am    
  10 C10            6.0212    -0.6164     0.1929 C.ar    
  11 C11            7.2153     0.0302    -0.1041 C.ar    
  12 C12            8.3912    -0.6897    -0.1995 C.ar    
  13 C13            8.3877    -2.0555    -0.0007 C.ar    
  14 C14            7.1940    -2.7142     0.2984 C.ar    
  15 C15            6.0081    -1.9868     0.4004 C.ar    
  16 C16            7.2277     1.5212    -0.3231 C.3     
  17 C17            7.1875    -4.1773     0.5119 C.2     
  18 O18            6.2214    -4.8357     0.1792 O.2     
  19 N19            8.2527    -4.7809     1.0754 N.am    
  20 C20            8.3111    -6.2447     1.1876 C.3     
  21 C21            8.5826    -6.6167     2.6487 C.3     
  22 C22            9.8466    -5.8987     3.1273 C.3     
  23 C23            9.6375    -4.3849     3.0452 C.3     
  24 C24            9.3804    -3.9879     1.5835 C.3     
  25 C25           10.1360    -6.2889     4.5538 C.ar    
  26 C26            9.5134    -5.6082     5.5850 C.ar    
  27 C27            9.7808    -5.9691     6.8935 C.ar    
  28 C28           10.6795    -7.0190     7.1219 C.ar    
  29 C29           11.2656    -7.6549     6.0262 C.ar    
  30 N30           10.9745    -7.2774     4.7986 N.ar    
  31 C31           10.9921    -7.4325     8.4568 C.1     
  32 N32           11.2401    -7.7605     9.5158 N.1     
  33 N33           -1.0787     2.3182     0.6480 N.3     
  34 C34           -0.8330     3.6398     1.2547 C.3     
  35 C35           -1.8745     4.2165     0.2856 C.3     
  36 C36           -1.4705     3.0207    -0.5881 C.3     
  37 H37            1.1365    -1.2620    -0.6933 H       
  38 H38            3.3188     2.0447     0.9810 H       
  39 H39            4.8519     1.0292     0.6167 H       
  40 H40            9.3159    -0.1819    -0.4308 H       
  41 H41            9.3086    -2.6147    -0.0768 H       
  42 H42            5.0821    -2.4904     0.6356 H       
  43 H43            7.4011     2.0266     0.6270 H       
  44 H44            8.0232     1.7791    -1.0223 H       
  45 H45            6.2679     1.8363    -0.7325 H       
  46 H46            7.3600    -6.6736     0.8721 H       
  47 H47            9.1139    -6.6277     0.5578 H       
  48 H48            7.7363    -6.3129     3.2648 H       
  49 H49            8.7238    -7.6945     2.7295 H       
  50 H50           10.6876    -6.1839     2.4953 H       
  51 H51            8.7812    -4.1022     3.6575 H       
  52 H52           10.5294    -3.8742     3.4081 H       
  53 H53           10.2687    -4.1906     0.9853 H       
  54 H54            9.1350    -2.9272     1.5293 H       
  55 H55            8.8261    -4.8032     5.3707 H       
  56 H56            9.3091    -5.4545     7.7175 H       
  57 H57           11.9605    -8.4660     6.1865 H       
  58 H58           -1.1331     3.6999     2.3009 H       
  59 H59            0.1755     4.0159     1.0826 H       
  60 H60           -2.8993     4.1737     0.6545 H       
  61 H61           -1.6057     5.1863    -0.1332 H       
  62 H62           -0.6322     3.2316    -1.2521 H       
  63 H63           -2.3110     2.5561    -1.1038 H       
@<TRIPOS>BOND
   1    1    2 ar
   2    1    6 ar
   3    1   33 1
   4    2    3 ar
   5    3    4 ar
   6    3   37 1
   7    4    5 ar
   8    4    7 1
   9    5    6 ar
  10    5   38 1
  11    7    8 2
  12    7    9 am
  13    9   10 1
  14    9   39 1
  15   10   11 ar
  16   10   15 ar
  17   11   12 ar
  18   11   16 1
  19   12   13 ar
  20   12   40 1
  21   13   14 ar
  22   13   41 1
  23   14   15 ar
  24   14   17 1
  25   15   42 1
  26   16   43 1
  27   16   44 1
  28   16   45 1
  29   17   18 2
  30   17   19 am
  31   19   20 1
  32   19   24 1
  33   20   21 1
  34   20   46 1
  35   20   47 1
  36   21   22 1
  37   21   48 1
  38   21   49 1
  39   22   23 1
  40   22   25 1
  41   22   50 1
  42   23   24 1
  43   23   51 1
  44   23   52 1
  45   24   53 1
  46   24   54 1
  47   25   26 ar
  48   25   30 ar
  49   26   27 ar
  50   26   55 1
  51   27   28 ar
  52   27   56 1
  53   28   29 ar
  54   28   31 1
  55   29   30 ar
  56   29   57 1
  57   31   32 3
  58   33   34 1
  59   33   36 1
  60   34   35 1
  61   34   58 1
  62   34   59 1
  63   35   36 1
  64   35   60 1
  65   35   61 1
  66   36   62 1
  67   36   63 1

#	End of record

