#	Name: ASD03240033
#	Creating user name:	WinNT
#	Creation time:	15. 06. 2019 20:34

#	Modifying user name:	WinNT
#	Modification time:	15. 06. 2019 20:34

#	Program:	/corina/corina34_cracker 3.40 0067  02.08.2006

@<TRIPOS>MOLECULE
ASD03240033
  95  103    0    0    0
SMALL
NO_CHARGES


@<TRIPOS>ATOM
   1 C1            -0.0795     0.9106     1.6893 C.ar    
   2 C2            -0.3775    -0.3783     2.2001 C.ar    
   3 N3             1.0799     1.5050     1.9927 N.ar    
   4 C4             1.9527     0.8914     2.7710 C.ar    
   5 C5             1.6449    -0.4377     3.2975 C.ar    
   6 N6             0.4971    -1.0122     2.9904 N.ar    
   7 C7             2.6164    -1.1355     4.1715 C.ar    
   8 C8             3.2374     1.5461     3.1087 C.ar    
   9 C9             3.8809     2.3519     2.1694 C.ar    
  10 C10            5.0774     2.9596     2.4901 C.ar    
  11 C11            5.6390     2.7710     3.7403 C.ar    
  12 C12            5.0056     1.9729     4.6763 C.ar    
  13 C13            3.8061     1.3641     4.3693 C.ar    
  14 C14            2.1650    -1.9452     5.2134 C.ar    
  15 C15            3.0747    -2.5926     6.0242 C.ar    
  16 C16            4.4321    -2.4398     5.8051 C.ar    
  17 C17            4.8860    -1.6380     4.7731 C.ar    
  18 C18            3.9859    -0.9900     3.9521 C.ar    
  19 C19            5.4203    -3.1492     6.6945 C.3     
  20 N20            5.7265    -4.4705     6.1301 N.3     
  21 C21            6.8554    -5.0940     6.8323 C.3     
  22 C22            7.2387    -6.3975     6.1282 C.3     
  23 C23            6.0334    -7.3418     6.1214 C.3     
  24 C24            4.8569    -6.6500     5.4272 C.3     
  25 C25            4.5427    -5.3391     6.1517 C.3     
  26 N26            6.3764    -8.5684     5.3976 N.am    
  27 C27            6.3612    -9.8575     5.9250 C.ar    
  28 C28            6.7533   -10.7183     4.8980 C.ar    
  29 N29            6.9948    -9.9257     3.7784 N.am    
  30 C30            6.7546    -8.6424     4.1075 C.2     
  31 C31            6.0511   -10.3704     7.1754 C.ar    
  32 C32            6.1315   -11.7308     7.3995 C.ar    
  33 C33            6.5203   -12.5844     6.3813 C.ar    
  34 C34            6.8311   -12.0827     5.1326 C.ar    
  35 O35            6.8702    -7.6927     3.3556 O.2     
  36 C36           -1.6010    -0.9850     1.8693 C.ar    
  37 C37           -2.4966    -0.3176     1.0510 C.ar    
  38 C38           -2.1890     0.9600     0.5510 C.ar    
  39 C39           -1.0150     1.5645     0.8643 C.ar    
  40 C40           -3.7844    -0.9527     0.7004 C.2     
  41 O41           -3.8497    -2.1586     0.5621 O.2     
  42 N42           -4.8863    -0.1947     0.5339 N.am    
  43 C43           -4.8581     1.2433     0.8341 C.3     
  44 C44           -5.3556     2.0131    -0.3934 C.3     
  45 C45           -6.7325     1.4827    -0.7996 C.3     
  46 C46           -6.6216     0.0020    -1.1703 C.3     
  47 C47           -6.1369    -0.7895     0.0430 C.3     
  48 C48           -5.8951    -2.2233    -0.3529 C.2     
  49 N49           -6.4182    -3.3077     0.2588 N.pl3   
  50 C50           -5.9542    -4.4107    -0.4058 C.2     
  51 C51           -5.1641    -3.9627    -1.4001 C.2     
  52 N52           -5.1500    -2.6225    -1.3471 N.2     
  53 C53           -7.3144    -3.3042     1.4177 C.3     
  54 H54            3.4436     2.4996     1.1929 H       
  55 H55            5.5768     3.5834     1.7635 H       
  56 H56            6.5759     3.2485     3.9866 H       
  57 H57            5.4491     1.8292     5.6505 H       
  58 H58            3.3125     0.7414     5.1008 H       
  59 H59            1.1055    -2.0650     5.3856 H       
  60 H60            2.7263    -3.2196     6.8316 H       
  61 H61            5.9468    -1.5225     4.6070 H       
  62 H62            4.3414    -0.3643     3.1467 H       
  63 H63            6.3360    -2.5617     6.7614 H       
  64 H64            4.9923    -3.2696     7.6897 H       
  65 H65            7.7072    -4.4138     6.8262 H       
  66 H66            6.5691    -5.3080     7.8620 H       
  67 H67            7.5384    -6.1826     5.1025 H       
  68 H68            8.0666    -6.8679     6.6588 H       
  69 H69            5.7577    -7.5879     7.1469 H       
  70 H70            5.1191    -6.4390     4.3905 H       
  71 H71            3.9830    -7.3008     5.4570 H       
  72 H72            4.2672    -5.5520     7.1846 H       
  73 H73            3.7146    -4.8371     5.6513 H       
  74 H74            7.2830   -10.2443     2.9088 H       
  75 H75            5.7477    -9.7076     7.9722 H       
  76 H76            5.8903   -12.1304     8.3735 H       
  77 H77            6.5809   -13.6470     6.5641 H       
  78 H78            7.1338   -12.7517     4.3406 H       
  79 H79           -1.8413    -1.9664     2.2508 H       
  80 H80           -2.8974     1.4682    -0.0865 H       
  81 H81           -0.7936     2.5463     0.4724 H       
  82 H82           -5.5076     1.4519     1.6842 H       
  83 H83           -3.8379     1.5479     1.0677 H       
  84 H84           -5.4309     3.0734    -0.1520 H       
  85 H85           -4.6553     1.8759    -1.2173 H       
  86 H86           -7.4261     1.5976     0.0333 H       
  87 H87           -7.0996     2.0454    -1.6579 H       
  88 H88           -7.5980    -0.3691    -1.4820 H       
  89 H89           -5.9094    -0.1162    -1.9869 H       
  90 H90           -6.8891    -0.7476     0.8308 H       
  91 H91           -6.1781    -5.4420    -0.1765 H       
  92 H92           -4.6368    -4.5751    -2.1166 H       
  93 H93           -8.3490    -3.2660     1.0768 H       
  94 H94           -7.1574    -4.2114     2.0012 H       
  95 H95           -7.1036    -2.4326     2.0374 H       
@<TRIPOS>BOND
   1    1    2 ar
   2    1    3 ar
   3    1   39 ar
   4    2   36 ar
   5    2    6 ar
   6    3    4 ar
   7    4    5 ar
   8    4    8 1
   9    5    6 ar
  10    5    7 1
  11    7   14 ar
  12    7   18 ar
  13    8    9 ar
  14    8   13 ar
  15    9   10 ar
  16    9   54 1
  17   10   11 ar
  18   10   55 1
  19   11   12 ar
  20   11   56 1
  21   12   13 ar
  22   12   57 1
  23   13   58 1
  24   14   15 ar
  25   14   59 1
  26   15   16 ar
  27   15   60 1
  28   16   17 ar
  29   16   19 1
  30   17   18 ar
  31   17   61 1
  32   18   62 1
  33   19   20 1
  34   19   63 1
  35   19   64 1
  36   20   21 1
  37   20   25 1
  38   21   22 1
  39   21   65 1
  40   21   66 1
  41   22   23 1
  42   22   67 1
  43   22   68 1
  44   23   24 1
  45   23   26 1
  46   23   69 1
  47   24   25 1
  48   24   70 1
  49   24   71 1
  50   25   72 1
  51   25   73 1
  52   26   27 1
  53   26   30 am
  54   27   28 ar
  55   27   31 ar
  56   28   29 1
  57   28   34 ar
  58   29   30 am
  59   29   74 1
  60   30   35 2
  61   31   32 ar
  62   31   75 1
  63   32   33 ar
  64   32   76 1
  65   33   34 ar
  66   33   77 1
  67   34   78 1
  68   36   37 ar
  69   36   79 1
  70   37   38 ar
  71   37   40 1
  72   38   39 ar
  73   38   80 1
  74   39   81 1
  75   40   41 2
  76   40   42 am
  77   42   43 1
  78   42   47 1
  79   43   44 1
  80   43   82 1
  81   43   83 1
  82   44   45 1
  83   44   84 1
  84   44   85 1
  85   45   46 1
  86   45   86 1
  87   45   87 1
  88   46   47 1
  89   46   88 1
  90   46   89 1
  91   47   48 1
  92   47   90 1
  93   48   49 1
  94   48   52 2
  95   49   50 1
  96   49   53 1
  97   50   51 2
  98   50   91 1
  99   51   52 1
 100   51   92 1
 101   53   93 1
 102   53   94 1
 103   53   95 1

#	End of record

