#	Name: ASD03470008
#	Creating user name:	WinNT
#	Creation time:	15. 06. 2019 20:42

#	Modifying user name:	WinNT
#	Modification time:	15. 06. 2019 20:42

#	Program:	/corina/corina34_cracker 3.40 0067  02.08.2006

@<TRIPOS>MOLECULE
ASD03470008
 122  122    0    0    0
SMALL
NO_CHARGES


@<TRIPOS>ATOM
   1 N1            -1.8356     4.3765     0.8863 N.am    
   2 C2            -2.4767     3.1155     0.4498 C.3     
   3 C3            -3.1617     2.4873     1.6361 C.2     
   4 O4            -3.6481     3.1812     2.5038 O.2     
   5 C5            -3.5082     3.4143    -0.6399 C.3     
   6 N6            -3.2274     1.1303     1.7199 N.am    
   7 C7            -3.9123     0.5736     2.9034 C.3     
   8 C8            -3.0407    -0.4936     3.5138 C.2     
   9 O9            -2.3014    -1.1589     2.8198 O.2     
  10 C10           -4.1533     1.6856     3.9263 C.3     
  11 C11           -2.8336     2.2891     4.3326 C.2     
  12 O12           -1.8001     1.8045     3.9363 O.2     
  13 O13           -2.8061     3.3650     5.1347 O.3     
  14 N14           -3.0985    -0.6973     4.8632 N.am    
  15 C15           -2.2131    -1.7635     5.3836 C.3     
  16 C16           -1.4137    -1.2075     6.5338 C.2     
  17 O17           -1.8950    -0.3726     7.2702 O.2     
  18 C18           -3.0592    -2.9423     5.8688 C.3     
  19 C19           -3.7896    -3.5694     4.6796 C.3     
  20 C20           -4.6358    -4.7482     5.1647 C.3     
  21 C21           -5.3661    -5.3754     3.9755 C.3     
  22 N22           -6.1785    -6.5071     4.4414 N.3     
  23 N23           -0.1443    -1.6557     6.7352 N.am    
  24 C24            0.5878    -1.0754     7.8784 C.3     
  25 C25            1.9598    -0.6565     7.4164 C.2     
  26 O26            2.5205    -1.2555     6.5233 O.2     
  27 C27           -0.1699     0.1444     8.4064 C.3     
  28 C28           -0.4363     1.1167     7.2555 C.3     
  29 C29           -1.5008    -0.3051     9.0127 C.3     
  30 C30           -1.4066     2.2042     7.7209 C.3     
  31 N31            2.5599     0.4107     8.0221 N.am    
  32 C32            3.9059     0.7568     7.5121 C.3     
  33 C33            3.9368     2.2294     7.1934 C.2     
  34 O34            3.2929     3.0154     7.8555 O.2     
  35 C35            4.9561     0.4402     8.5788 C.3     
  36 C36            4.9935    -1.0467     8.8213 C.2     
  37 O37            4.2559    -1.7781     8.2042 O.2     
  38 O38            5.8462    -1.5585     9.7227 O.3     
  39 N39            4.6979     2.6651     6.1523 N.am    
  40 C40            4.6897     4.1180     5.8902 C.3     
  41 C41            4.4613     4.3464     4.4183 C.2     
  42 O42            4.8409     3.5348     3.6010 O.2     
  43 C43            3.5653     4.7770     6.6917 C.3     
  44 C44            2.2417     4.1855     6.2802 C.2     
  45 N45            1.1001     4.6351     6.8380 N.am    
  46 O46            2.2038     3.3050     5.4471 O.2     
  47 N47            3.8191     5.4849     4.0216 N.am    
  48 C48            3.6350     5.6347     2.5603 C.3     
  49 C49            2.1825     5.9274     2.2851 C.2     
  50 O50            1.5223     6.5633     3.0793 O.2     
  51 C51            4.4974     6.7908     2.0500 C.3     
  52 C52            5.9761     6.4452     2.2367 C.3     
  53 C53            6.3362     5.2503     1.3516 C.3     
  54 C54            6.8348     7.6487     1.8429 C.3     
  55 N55            1.6216     5.4678     1.1332 N.am    
  56 C56            0.1962     5.7870     0.9191 C.3     
  57 C57           -0.5297     4.5294     0.5159 C.2     
  58 O58            0.0351     3.6690    -0.1256 O.2     
  59 C59           -0.4068     6.3338     2.2146 C.3     
  60 C60           -0.2621     5.3074     3.3085 C.2     
  61 O61           -0.6408     5.6041     4.5616 O.3     
  62 O62            0.1947     4.2173     3.0575 O.2     
  63 H63           -2.3116     5.0501     1.3969 H       
  64 H64           -1.7186     2.4348     0.0625 H       
  65 H65           -3.0129     3.8821    -1.4907 H       
  66 H66           -3.9788     2.4845    -0.9596 H       
  67 H67           -4.2680     4.0892    -0.2457 H       
  68 H68           -2.8441     0.5582     1.0368 H       
  69 H69           -4.8655     0.1388     2.6027 H       
  70 H70           -4.7843     2.4562     3.4834 H       
  71 H71           -4.6487     1.2706     4.8041 H       
  72 H72           -1.9361     3.7166     5.3680 H       
  73 H73           -3.6798    -0.1785     5.4411 H       
  74 H74           -1.5374    -2.0951     4.5952 H       
  75 H75           -2.4125    -3.6875     6.3320 H       
  76 H76           -3.7885    -2.5901     6.5984 H       
  77 H77           -4.4363    -2.8243     4.2163 H       
  78 H78           -3.0604    -3.9216     3.9500 H       
  79 H79           -3.9890    -5.4934     5.6280 H       
  80 H80           -5.3650    -4.3960     5.8943 H       
  81 H81           -6.0128    -4.6302     3.5123 H       
  82 H82           -4.6369    -5.7275     3.2460 H       
  83 H83           -6.6713    -6.9387     3.6738 H       
  84 H84           -5.6110    -7.1820     4.9318 H       
  85 H85            0.2586    -2.3225     6.1573 H       
  86 H86            0.6784    -1.8196     8.6696 H       
  87 H87            0.4282     0.6409     9.1704 H       
  88 H88            0.5017     1.5760     6.9434 H       
  89 H89           -0.8727     0.5754     6.4161 H       
  90 H90           -1.9145    -1.1193     8.4177 H       
  91 H91           -1.3372    -0.6483    10.0342 H       
  92 H92           -2.1988     0.5321     9.0180 H       
  93 H93           -2.3446     1.7449     8.0330 H       
  94 H94           -0.9702     2.7456     8.5603 H       
  95 H95           -1.5964     2.8970     6.9010 H       
  96 H96            2.1331     0.9081     8.7372 H       
  97 H97            4.1149     0.1805     6.6108 H       
  98 H98            5.9346     0.7773     8.2366 H       
  99 H99            4.6988     0.9531     9.5055 H       
 100 H100           5.8338    -2.5178     9.8435 H       
 101 H101           5.2192     2.0523     5.6104 H       
 102 H102           5.6475     4.5474     6.1839 H       
 103 H103           3.7265     4.6019     7.7554 H       
 104 H104           3.5604     5.8494     6.4967 H       
 105 H105           1.1305     5.3394     7.5043 H       
 106 H106           0.2482     4.2544     6.5731 H       
 107 H107           3.5054     6.1500     4.6542 H       
 108 H108           3.9234     4.7109     2.0587 H       
 109 H109           4.2938     6.9566     0.9921 H       
 110 H110           4.2619     7.6950     2.6113 H       
 111 H111           6.1612     6.1928     3.2808 H       
 112 H112           7.3897     5.0040     1.4846 H       
 113 H113           5.7244     4.3929     1.6322 H       
 114 H114           6.1511     5.5026     0.3075 H       
 115 H115           6.5782     8.5000     2.4735 H       
 116 H116           7.8883     7.4025     1.9759 H       
 117 H117           6.6497     7.9011     0.7988 H       
 118 H118           2.1324     4.9569     0.4859 H       
 119 H119           0.1035     6.5315     0.1284 H       
 120 H120           0.1154     7.2466     2.5015 H       
 121 H121          -1.4632     6.5531     2.0595 H       
 122 H122          -0.5288     4.9135     5.2292 H       
@<TRIPOS>BOND
   1    1    2 1
   2    1   57 am
   3    1   63 1
   4    2    3 1
   5    2    5 1
   6    2   64 1
   7    3    4 2
   8    3    6 am
   9    5   65 1
  10    5   66 1
  11    5   67 1
  12    6    7 1
  13    6   68 1
  14    7    8 1
  15    7   10 1
  16    7   69 1
  17    8    9 2
  18    8   14 am
  19   10   11 1
  20   10   70 1
  21   10   71 1
  22   11   13 1
  23   11   12 2
  24   13   72 1
  25   14   15 1
  26   14   73 1
  27   15   16 1
  28   15   18 1
  29   15   74 1
  30   16   17 2
  31   16   23 am
  32   18   19 1
  33   18   75 1
  34   18   76 1
  35   19   20 1
  36   19   77 1
  37   19   78 1
  38   20   21 1
  39   20   79 1
  40   20   80 1
  41   21   22 1
  42   21   81 1
  43   21   82 1
  44   22   83 1
  45   22   84 1
  46   23   24 1
  47   23   85 1
  48   24   27 1
  49   24   25 1
  50   24   86 1
  51   25   31 am
  52   25   26 2
  53   27   28 1
  54   27   29 1
  55   27   87 1
  56   28   30 1
  57   28   88 1
  58   28   89 1
  59   29   90 1
  60   29   91 1
  61   29   92 1
  62   30   93 1
  63   30   94 1
  64   30   95 1
  65   31   32 1
  66   31   96 1
  67   32   35 1
  68   32   33 1
  69   32   97 1
  70   33   39 am
  71   33   34 2
  72   35   36 1
  73   35   98 1
  74   35   99 1
  75   36   37 2
  76   36   38 1
  77   38  100 1
  78   39   40 1
  79   39  101 1
  80   40   43 1
  81   40   41 1
  82   40  102 1
  83   41   42 2
  84   41   47 am
  85   43   44 1
  86   43  103 1
  87   43  104 1
  88   44   45 am
  89   44   46 2
  90   45  105 1
  91   45  106 1
  92   47   48 1
  93   47  107 1
  94   48   49 1
  95   48   51 1
  96   48  108 1
  97   49   50 2
  98   49   55 am
  99   51   52 1
 100   51  109 1
 101   51  110 1
 102   52   54 1
 103   52   53 1
 104   52  111 1
 105   53  112 1
 106   53  113 1
 107   53  114 1
 108   54  115 1
 109   54  116 1
 110   54  117 1
 111   55   56 1
 112   55  118 1
 113   56   57 1
 114   56   59 1
 115   56  119 1
 116   57   58 2
 117   59   60 1
 118   59  120 1
 119   59  121 1
 120   60   61 1
 121   60   62 2
 122   61  122 1

#	End of record

