#	Name: ASD03091565
#	Creating user name:	WinNT
#	Creation time:	15. 06. 2019 20:30

#	Modifying user name:	WinNT
#	Modification time:	15. 06. 2019 20:30

#	Program:	/corina/corina34_cracker 3.40 0067  02.08.2006

@<TRIPOS>MOLECULE
ASD03091565
  44   46    0    0    0
SMALL
NO_CHARGES


@<TRIPOS>ATOM
   1 C1            -0.0016     1.2968    -0.1784 C.2     
   2 C2            -0.0155    -0.0298     0.0613 C.2     
   3 N3            -1.2180    -0.5359     0.2394 N.2     
   4 C4            -2.2211     0.2851     0.1643 C.2     
   5 S5            -1.6671     1.8706    -0.1543 S.3     
   6 N6            -3.5488    -0.0715     0.3247 N.3     
   7 C7            -3.6788    -1.5110     0.5937 C.3     
   8 C8            -4.1809     0.7172     1.3922 C.3     
   9 C9            -5.6596     0.3339     1.4952 C.3     
  10 O10           -5.7672    -1.0735     1.7256 O.3     
  11 C11           -5.1625    -1.8719     0.7046 C.3     
  12 C12           -5.3027    -3.3525     1.0638 C.3     
  13 C13           -6.3043     1.0926     2.6569 C.3     
  14 C14            1.1996     2.1249    -0.4136 C.ar    
  15 C15            1.2485     3.0159    -1.4874 C.ar    
  16 C16            2.3054     2.0336     0.4398 C.ar    
  17 C17            3.4053     2.8307     0.1757 C.ar    
  18 C18            3.3775     3.6841    -0.9125 C.ar    
  19 N19            2.3190     3.7534    -1.6971 N.ar    
  20 C20            1.2388    -0.8630     0.1198 C.3     
  21 N21            1.6735    -0.9960     1.5167 N.3     
  22 C22            4.5735     4.5536    -1.2031 C.3     
  23 H23           -3.2268    -2.0759    -0.2215 H       
  24 H24           -3.1743    -1.7535     1.5290 H       
  25 H25           -3.6844     0.5102     2.3403 H       
  26 H26           -4.0953     1.7787     1.1599 H       
  27 H27           -6.1676     0.5904     0.5655 H       
  28 H28           -5.6561    -1.6795    -0.2480 H       
  29 H29           -6.3591    -3.6079     1.1465 H       
  30 H30           -4.8417    -3.9604     0.2854 H       
  31 H31           -4.8071    -3.5439     2.0156 H       
  32 H32           -6.2185     2.1651     2.4826 H       
  33 H33           -7.3570     0.8193     2.7297 H       
  34 H34           -5.7967     0.8338     3.5861 H       
  35 H35            0.4013     3.1007    -2.1519 H       
  36 H36            2.3002     1.3586     1.2829 H       
  37 H37            4.2763     2.7872     0.8128 H       
  38 H38            1.0382    -1.8513    -0.2939 H       
  39 H39            2.0241    -0.3787    -0.4605 H       
  40 H40            0.9383    -1.3835     2.0889 H       
  41 H41            2.5136    -1.5510     1.5827 H       
  42 H42            5.2572     4.0218    -1.8648 H       
  43 H43            4.2448     5.4747    -1.6845 H       
  44 H44            5.0837     4.7934    -0.2702 H       
@<TRIPOS>BOND
   1    1    2 2
   2    1   14 1
   3    1    5 1
   4    2    3 1
   5    2   20 1
   6    3    4 2
   7    4    5 1
   8    4    6 1
   9    6    7 1
  10    6    8 1
  11    7   11 1
  12    7   23 1
  13    7   24 1
  14    8    9 1
  15    8   25 1
  16    8   26 1
  17    9   10 1
  18    9   13 1
  19    9   27 1
  20   10   11 1
  21   11   12 1
  22   11   28 1
  23   12   29 1
  24   12   30 1
  25   12   31 1
  26   13   32 1
  27   13   33 1
  28   13   34 1
  29   14   15 ar
  30   14   16 ar
  31   15   19 ar
  32   15   35 1
  33   16   17 ar
  34   16   36 1
  35   17   18 ar
  36   17   37 1
  37   18   19 ar
  38   18   22 1
  39   20   21 1
  40   20   38 1
  41   20   39 1
  42   21   40 1
  43   21   41 1
  44   22   42 1
  45   22   43 1
  46   22   44 1

#	End of record

