#	Name: ASD03331717
#	Creating user name:	WinNT
#	Creation time:	15. 06. 2019 20:39

#	Modifying user name:	WinNT
#	Modification time:	15. 06. 2019 20:39

#	Program:	/corina/corina34_cracker 3.40 0067  02.08.2006

@<TRIPOS>MOLECULE
ASD03331717
  52   55    0    0    0
SMALL
NO_CHARGES


@<TRIPOS>ATOM
   1 C1             1.1647    -0.4244    -1.2321 C.ar    
   2 C2             0.6536     0.0105    -2.4411 C.ar    
   3 C3             1.1638     1.1464    -3.0423 C.ar    
   4 C4             2.1857     1.8506    -2.4364 C.ar    
   5 C5             2.7009     1.4167    -1.2219 C.ar    
   6 C6             2.1867     0.2753    -0.6210 C.ar    
   7 N7             3.7367     2.1277    -0.6056 N.am    
   8 C8             3.7764     3.4720    -0.6930 C.2     
   9 N9             4.7206     4.1632    -0.0242 N.am    
  10 O10            2.9604     4.0613    -1.3751 O.2     
  11 C11            4.8226     5.5491    -0.1904 C.ar    
  12 C12            3.7730     7.6830    -0.5308 C.ar    
  13 C13            3.6764     6.3140    -0.3669 C.ar    
  14 C14            6.0675     6.1600    -0.1731 C.ar    
  15 C15            6.1639     7.5391    -0.3383 C.ar    
  16 C16            5.0087     8.2981    -0.5202 C.ar    
  17 C17            7.4923     8.1992    -0.3205 C.ar    
  18 N18            8.5874     7.4681    -0.1518 N.ar    
  19 C19            7.5790     9.5783    -0.4864 C.ar    
  20 C20            8.8249    10.1854    -0.4686 C.ar    
  21 C21            9.9455     9.3932    -0.2852 C.ar    
  22 C22            9.7902     8.0189    -0.1304 C.ar    
  23 N23           10.9107     7.2163     0.0489 N.3     
  24 C24           12.4765     5.9354    -1.2406 C.3     
  25 C25           11.8393     7.3398    -1.0949 C.3     
  26 C26           10.5284     5.7995     0.1923 C.3     
  27 C27           11.2777     5.0107    -0.9021 C.3     
  28 C28           -0.4616    -0.7554    -3.1051 C.3     
  29 F29           -1.6938    -0.2557    -2.6705 F       
  30 F30           -0.3636    -0.6121    -4.4933 F       
  31 F31           -0.3624    -2.1096    -2.7680 F       
  32 H32            0.7613    -1.3096    -0.7630 H       
  33 H33            0.7629     1.4831    -3.9870 H       
  34 H34            2.5840     2.7375    -2.9066 H       
  35 H35            2.5855    -0.0649     0.3233 H       
  36 H36            4.4261     1.6530    -0.1154 H       
  37 H37            5.3294     3.7001     0.5723 H       
  38 H38            2.8790     8.2733    -0.6677 H       
  39 H39            2.7072     5.8375    -0.3764 H       
  40 H40            6.9595     5.5678    -0.0316 H       
  41 H41            5.0804     9.3680    -0.6489 H       
  42 H42            6.6857    10.1686    -0.6278 H       
  43 H43            8.9196    11.2537    -0.5955 H       
  44 H44           10.9301     9.8366    -0.2666 H       
  45 H45           12.8231     5.7677    -2.2603 H       
  46 H46           13.2886     5.7991    -0.5264 H       
  47 H47           11.2931     7.6044    -2.0003 H       
  48 H48           12.6064     8.0843    -0.8823 H       
  49 H49           10.8196     5.4348     1.1774 H       
  50 H50            9.4524     5.6903     0.0572 H       
  51 H51           10.6429     4.8669    -1.7764 H       
  52 H52           11.6267     4.0529    -0.5162 H       
@<TRIPOS>BOND
   1    1    2 ar
   2    1    6 ar
   3    1   32 1
   4    2    3 ar
   5    2   28 1
   6    3    4 ar
   7    3   33 1
   8    4    5 ar
   9    4   34 1
  10    5    6 ar
  11    5    7 1
  12    6   35 1
  13    7    8 am
  14    7   36 1
  15    8    9 am
  16    8   10 2
  17    9   11 1
  18    9   37 1
  19   11   14 ar
  20   11   13 ar
  21   12   13 ar
  22   12   16 ar
  23   12   38 1
  24   13   39 1
  25   14   15 ar
  26   14   40 1
  27   15   16 ar
  28   15   17 1
  29   16   41 1
  30   17   19 ar
  31   17   18 ar
  32   18   22 ar
  33   19   20 ar
  34   19   42 1
  35   20   21 ar
  36   20   43 1
  37   21   22 ar
  38   21   44 1
  39   22   23 1
  40   23   26 1
  41   23   25 1
  42   24   25 1
  43   24   27 1
  44   24   45 1
  45   24   46 1
  46   25   47 1
  47   25   48 1
  48   26   27 1
  49   26   49 1
  50   26   50 1
  51   27   51 1
  52   27   52 1
  53   28   29 1
  54   28   30 1
  55   28   31 1

#	End of record

