#	Name: ASD01770010
#	Creating user name:	WinNT
#	Creation time:	15. 06. 2019 19:23

#	Modifying user name:	WinNT
#	Modification time:	15. 06. 2019 19:23

#	Program:	/corina/corina34_cracker 3.40 0067  02.08.2006

@<TRIPOS>MOLECULE
ASD01770010
  36   37    0    0    0
SMALL
NO_CHARGES


@<TRIPOS>ATOM
   1 C1            -0.0167     1.3770     0.0096 C.ar    
   2 C2             0.0021    -0.0041     0.0020 C.ar    
   3 C3             1.2082    -0.6803    -0.0131 C.ar    
   4 C4             2.3980     0.0237    -0.0203 C.ar    
   5 O5             4.7197     1.5601    -0.0333 O.2     
   6 C6             2.3846     1.4052    -0.0127 C.ar    
   7 O7             3.6464     3.3762    -0.0137 O.2     
   8 C8             1.1761     2.0859     0.0020 C.ar    
   9 N9             3.6588     2.1583    -0.0203 N.pl3   
  10 O10            1.1603     3.4448     0.0090 O.3     
  11 C11           -0.1203     4.0786     0.0242 C.3     
  12 C12            0.0611     5.5930     0.1559 C.3     
  13 O13            0.8020     5.8838     1.3428 O.3     
  14 C14            0.8242     6.1161    -1.0649 C.3     
  15 O15            2.1294     5.5352    -1.0977 O.3     
  16 C16            0.0596     5.7305    -2.3349 C.3     
  17 O17            0.7990     6.1502    -3.4835 O.3     
  18 C18           -0.1218     4.2108    -2.3704 C.3     
  19 O19           -0.8109     3.7870    -1.1924 O.3     
  20 C20           -0.9369     3.8230    -3.6058 C.3     
  21 O21           -1.0073     2.3990    -3.7022 O.3     
  22 H22           -0.9589     1.9047     0.0169 H       
  23 H23           -0.9260    -0.5563     0.0083 H       
  24 H24            1.2208    -1.7602    -0.0191 H       
  25 H25            3.3387    -0.5068    -0.0314 H       
  26 H26           -0.6998     3.7071     0.8693 H       
  27 H27           -0.9158     6.0736     0.2094 H       
  28 H28            0.3789     5.5758     2.1559 H       
  29 H29            0.9094     7.2011    -1.0042 H       
  30 H30            2.6677     5.7332    -0.3192 H       
  31 H31           -0.9169     6.2149    -2.3334 H       
  32 H32            0.9556     7.1036    -3.5236 H       
  33 H33            0.8550     3.7291    -2.4133 H       
  34 H34           -1.9438     4.2315    -3.5196 H       
  35 H35           -0.4571     4.2243    -4.4984 H       
  36 H36           -1.5105     2.0808    -4.4642 H       
@<TRIPOS>BOND
   1    1    2 ar
   2    1    8 ar
   3    1   22 1
   4    2    3 ar
   5    2   23 1
   6    3    4 ar
   7    3   24 1
   8    4    6 ar
   9    4   25 1
  10    5    9 2
  11    6    8 ar
  12    6    9 1
  13    7    9 2
  14    8   10 1
  15   10   11 1
  16   11   12 1
  17   11   19 1
  18   11   26 1
  19   12   13 1
  20   12   14 1
  21   12   27 1
  22   13   28 1
  23   14   15 1
  24   14   16 1
  25   14   29 1
  26   15   30 1
  27   16   17 1
  28   16   18 1
  29   16   31 1
  30   17   32 1
  31   18   19 1
  32   18   20 1
  33   18   33 1
  34   20   21 1
  35   20   34 1
  36   20   35 1
  37   21   36 1

#	End of record

