#	Name: ASD00431302
#	Creating user name:	WinNT
#	Creation time:	15. 06. 2019 18:35

#	Modifying user name:	WinNT
#	Modification time:	15. 06. 2019 18:35

#	Program:	/corina/corina34_cracker 3.40 0067  02.08.2006

@<TRIPOS>MOLECULE
ASD00431302
  29   30    0    0    0
SMALL
NO_CHARGES


@<TRIPOS>ATOM
   1 S1            -0.0480     1.7090    -0.1248 S.3     
   2 C2            -0.0323     0.0010    -0.0488 C.2     
   3 N3             1.1814    -0.4272     0.0977 N.2     
   4 C4             2.1342     0.4851     0.1584 C.2     
   5 C5             1.7038     1.7437     0.0583 C.2     
   6 O6            -1.1300    -0.7897    -0.1297 O.3     
   7 C7            -0.9437    -2.1344    -0.2090 C.ar    
   8 C8            -2.0323    -2.9924    -0.1258 C.ar    
   9 C9            -1.8423    -4.3588    -0.2065 C.ar    
  10 C10           -0.5642    -4.8726    -0.3705 C.ar    
  11 C11            0.5228    -4.0154    -0.4531 C.ar    
  12 C12            0.3327    -2.6488    -0.3787 C.ar    
  13 O13           -0.3771    -6.2171    -0.4499 O.3     
  14 C14           -1.5188    -7.0455    -0.2215 C.3     
  15 C15           -2.1894    -7.3697    -1.5579 C.3     
  16 C16           -1.0789    -8.3446     0.4567 C.3     
  17 Cl17          -3.6314    -2.3488     0.0801 Cl      
  18 H18            3.1772     0.2327     0.2797 H       
  19 H19            2.3214     2.6293     0.0849 H       
  20 H20           -2.6886    -5.0265    -0.1414 H       
  21 H21            1.5177    -4.4159    -0.5802 H       
  22 H22            1.1790    -1.9814    -0.4483 H       
  23 H23           -2.2254    -6.5211     0.4218 H       
  24 H24           -1.4827    -7.8942    -2.2012 H       
  25 H25           -3.0602    -8.0016    -1.3837 H       
  26 H26           -2.5028    -6.4443    -2.0411 H       
  27 H27           -0.6012    -8.1136     1.4089 H       
  28 H28           -1.9497    -8.9765     0.6310 H       
  29 H29           -0.3723    -8.8690    -0.1865 H       
@<TRIPOS>BOND
   1    1    2 1
   2    1    5 1
   3    2    3 2
   4    2    6 1
   5    3    4 1
   6    4    5 2
   7    4   18 1
   8    5   19 1
   9    6    7 1
  10    7    8 ar
  11    7   12 ar
  12    8    9 ar
  13    8   17 1
  14    9   10 ar
  15    9   20 1
  16   10   11 ar
  17   10   13 1
  18   11   12 ar
  19   11   21 1
  20   12   22 1
  21   13   14 1
  22   14   15 1
  23   14   16 1
  24   14   23 1
  25   15   24 1
  26   15   25 1
  27   15   26 1
  28   16   27 1
  29   16   28 1
  30   16   29 1

#	End of record

