#	Name: ASD01915411
#	Creating user name:	WinNT
#	Creation time:	15. 06. 2019 20:05

#	Modifying user name:	WinNT
#	Modification time:	15. 06. 2019 20:05

#	Program:	/corina/corina34_cracker 3.40 0067  02.08.2006

@<TRIPOS>MOLECULE
ASD01915411
  38   39    0    0    0
SMALL
NO_CHARGES


@<TRIPOS>ATOM
   1 C1            -0.0172     1.3757    -0.0016 C.ar    
   2 C2             0.0018    -0.0048    -0.0121 C.ar    
   3 N3             1.1437    -0.6656    -0.0224 N.ar    
   4 C4             2.3090    -0.0380    -0.0235 C.ar    
   5 C5             2.3648     1.3515    -0.0133 C.ar    
   6 C6             1.1839     2.0722    -0.0024 C.ar    
   7 N7             3.4905    -0.7762    -0.0345 N.am    
   8 C8             3.4466    -2.1199     0.0604 C.2     
   9 C9             4.6890    -2.9108    -0.0662 C.ar    
  10 O10            2.3853    -2.6813     0.2501 O.2     
  11 C11            5.9090    -2.2671    -0.2841 C.ar    
  12 C12            7.0724    -3.0057    -0.4023 C.ar    
  13 C13            7.0351    -4.3845    -0.3055 C.ar    
  14 C14            5.8202    -5.0394    -0.0875 C.ar    
  15 C15            4.6458    -4.2998     0.0375 C.ar    
  16 F16            8.2497    -2.3776    -0.6135 F       
  17 C17           -2.6741    -3.4656    -2.3881 C.3     
  18 C18           -2.6463    -2.5028    -1.1993 C.3     
  19 C19           -1.3262    -1.7294    -1.2001 C.3     
  20 C20           -1.2985    -0.7666    -0.0113 C.3     
  21 C21            5.7828    -6.4674     0.0121 C.1     
  22 N22            5.7531    -7.6003     0.0911 N.1     
  23 H23           -0.9567     1.9084     0.0026 H       
  24 H24            3.3170     1.8610    -0.0135 H       
  25 H25            1.1961     3.1521     0.0053 H       
  26 H26            4.3448    -0.3230    -0.1105 H       
  27 H27            5.9440    -1.1904    -0.3609 H       
  28 H28            7.9465    -4.9563    -0.3989 H       
  29 H29            3.7045    -4.8017     0.2061 H       
  30 H30           -2.5848    -2.9002    -3.3157 H       
  31 H31           -1.8426    -4.1659    -2.3079 H       
  32 H32           -3.6145    -4.0166    -2.3875 H       
  33 H33           -3.4778    -1.8026    -1.2794 H       
  34 H34           -2.7356    -3.0682    -0.2717 H       
  35 H35           -0.4948    -2.4297    -1.1200 H       
  36 H36           -1.2369    -1.1640    -2.1277 H       
  37 H37           -1.3877    -1.3320     0.9163 H       
  38 H38           -2.1299    -0.0663    -0.0914 H       
@<TRIPOS>BOND
   1    1    2 ar
   2    1    6 ar
   3    1   23 1
   4    2    3 ar
   5    2   20 1
   6    3    4 ar
   7    4    5 ar
   8    4    7 1
   9    5    6 ar
  10    5   24 1
  11    6   25 1
  12    7    8 am
  13    7   26 1
  14    8    9 1
  15    8   10 2
  16    9   11 ar
  17    9   15 ar
  18   11   12 ar
  19   11   27 1
  20   12   13 ar
  21   12   16 1
  22   13   14 ar
  23   13   28 1
  24   14   15 ar
  25   14   21 1
  26   15   29 1
  27   17   18 1
  28   17   30 1
  29   17   31 1
  30   17   32 1
  31   18   19 1
  32   18   33 1
  33   18   34 1
  34   19   20 1
  35   19   35 1
  36   19   36 1
  37   20   37 1
  38   20   38 1
  39   21   22 3

#	End of record

