#	Name: ASD01412079
#	Creating user name:	WinNT
#	Creation time:	15. 06. 2019 19:20

#	Modifying user name:	WinNT
#	Modification time:	15. 06. 2019 19:20

#	Program:	/corina/corina34_cracker 3.40 0067  02.08.2006

@<TRIPOS>MOLECULE
ASD01412079
  53   55    0    0    0
SMALL
NO_CHARGES


@<TRIPOS>ATOM
   1 C1             0.3709     2.9027    -0.6248 C.ar    
   2 C2             0.0960     1.5449    -0.7049 C.ar    
   3 C3             1.1190     0.6129    -0.6635 C.ar    
   4 C4             2.4397     1.0263    -0.5398 C.ar    
   5 C5             2.7336     2.4015    -0.4567 C.ar    
   6 C6             1.6856     3.3441    -0.5010 C.ar    
   7 C7             0.7985    -0.8569    -0.7526 C.3     
   8 O8            -1.1917     1.1252    -0.8248 O.3     
   9 N9             3.6387     0.3463    -0.4731 N.pl3   
  10 C10            4.6666     1.2317    -0.3512 C.2     
  11 C11            4.1780     2.4921    -0.3352 C.2     
  12 C12            6.1440     0.9304    -0.2462 C.3     
  13 O13            6.8647     2.1433    -0.4982 O.3     
  14 C14            6.4300     3.2622     0.2793 C.3     
  15 C15            5.0466     3.7176    -0.2086 C.3     
  16 C16            6.4685     0.4189     1.1587 C.3     
  17 C17            7.9751     0.1813     1.2797 C.3     
  18 C18            8.2989    -0.3354     2.6829 C.3     
  19 C19            6.5309    -0.1256    -1.2836 C.3     
  20 C20           -2.2090     2.1267    -0.7609 C.3     
  21 C21           -2.3959     2.7529    -2.1443 C.3     
  22 C22           -3.5241     1.4896    -0.3076 C.3     
  23 C23            6.2388     0.3978    -2.6663 C.2     
  24 O24            5.7155     1.4780    -2.8053 O.2     
  25 O25            6.5599    -0.3359    -3.7434 O.3     
  26 C26            1.9715     4.7449    -0.4188 C.1     
  27 N27            2.1982     5.8561    -0.3536 N.1     
  28 H28           -0.4365     3.6189    -0.6631 H       
  29 H29            0.8029    -1.1670    -1.7976 H       
  30 H30            1.5471    -1.4261    -0.2015 H       
  31 H31           -0.1864    -1.0407    -0.3232 H       
  32 H32            3.7351    -0.6183    -0.5077 H       
  33 H33            6.3683     2.9735     1.3285 H       
  34 H34            7.1418     4.0802     0.1686 H       
  35 H35            5.1393     4.2063    -1.1785 H       
  36 H36            4.6091     4.4076     0.5131 H       
  37 H37            6.1571     1.1591     1.8958 H       
  38 H38            5.9377    -0.5164     1.3365 H       
  39 H39            8.2871    -0.5560     0.5400 H       
  40 H40            8.5057     1.1174     1.1058 H       
  41 H41            7.9868     0.4019     3.4226 H       
  42 H42            7.7683    -1.2716     2.8568 H       
  43 H43            9.3722    -0.5047     2.7690 H       
  44 H44            7.5944    -0.3479    -1.1965 H       
  45 H45            5.9544    -1.0341    -1.1097 H       
  46 H46           -1.9149     2.8985    -0.0495 H       
  47 H47           -2.6899     1.9811    -2.8557 H       
  48 H48           -3.1719     3.5168    -2.0956 H       
  49 H49           -1.4590     3.2068    -2.4673 H       
  50 H50           -3.3909     1.0435     0.6780 H       
  51 H51           -4.3001     2.2535    -0.2588 H       
  52 H52           -3.8181     0.7179    -1.0189 H       
  53 H53            6.3531     0.0416    -4.6093 H       
@<TRIPOS>BOND
   1    1    2 ar
   2    1    6 ar
   3    1   28 1
   4    2    3 ar
   5    2    8 1
   6    3    4 ar
   7    3    7 1
   8    4    5 ar
   9    4    9 1
  10    5    6 ar
  11    5   11 1
  12    6   26 1
  13    7   29 1
  14    7   30 1
  15    7   31 1
  16    8   20 1
  17    9   10 1
  18    9   32 1
  19   10   11 2
  20   10   12 1
  21   11   15 1
  22   12   13 1
  23   12   16 1
  24   12   19 1
  25   13   14 1
  26   14   15 1
  27   14   33 1
  28   14   34 1
  29   15   35 1
  30   15   36 1
  31   16   17 1
  32   16   37 1
  33   16   38 1
  34   17   18 1
  35   17   39 1
  36   17   40 1
  37   18   41 1
  38   18   42 1
  39   18   43 1
  40   19   23 1
  41   19   44 1
  42   19   45 1
  43   20   21 1
  44   20   22 1
  45   20   46 1
  46   21   47 1
  47   21   48 1
  48   21   49 1
  49   22   50 1
  50   22   51 1
  51   22   52 1
  52   23   24 2
  53   23   25 1
  54   25   53 1
  55   26   27 3

#	End of record

