#	Name: ASD09116009
#	Creating user name:	WinNT
#	Creation time:	15. 06. 2019 21:20

#	Modifying user name:	WinNT
#	Modification time:	15. 06. 2019 21:20

#	Program:	/corina/corina34_cracker 3.40 0067  02.08.2006

@<TRIPOS>MOLECULE
ASD09116009
  81   87    0    0    0
SMALL
NO_CHARGES


@<TRIPOS>ATOM
   1 C1            -1.6032     1.8368    -0.1631 C.ar    
   2 C2            -1.4488     0.4654    -0.1631 C.ar    
   3 C3            -0.1701    -0.0892    -0.1599 C.ar    
   4 C4             0.9460     0.7457    -0.1569 C.ar    
   5 C5             0.7795     2.1157    -0.1570 C.ar    
   6 C6            -0.4920     2.6606    -0.1601 C.ar    
   7 C7             0.0024    -1.5622    -0.1594 C.ar    
   8 C8            -0.6782    -2.3774     0.7550 C.ar    
   9 C9            -0.4854    -3.7510     0.7183 C.ar    
  10 N10            0.3333    -4.3124    -0.1676 N.ar    
  11 C11            0.9802    -3.5836    -1.0305 C.ar    
  12 C12            0.8398    -2.1930    -1.0676 C.ar    
  13 C13            1.9383    -4.1055    -2.0857 C.3     
  14 C14            1.4007    -3.6002    -3.4404 C.3     
  15 C15            1.2121    -2.0829    -3.3781 C.3     
  16 N16            1.6061    -1.5668    -2.0568 N.3     
  17 N17           -1.1655    -4.5625     1.6320 N.pl3   
  18 N18           -1.6547    -4.1828     2.8922 N.2     
  19 C19           -2.2231    -5.2418     3.4171 C.2     
  20 N20           -2.1184    -6.2631     2.5590 N.2     
  21 C21           -1.4875    -5.8672     1.4741 C.2     
  22 N22           -2.8374    -5.2951     4.6688 N.pl3   
  23 C23           -3.5033    -6.4557     5.0715 C.ar    
  24 C24           -3.5695    -6.7881     6.4190 C.ar    
  25 C25           -4.1054    -7.2764     4.1253 C.ar    
  26 C26           -4.7621    -8.4221     4.5350 C.ar    
  27 C27           -4.8208    -8.7502     5.8650 C.ar    
  28 C28           -4.2282    -7.9358     6.8153 C.ar    
  29 N29           -1.1965    -6.6489     0.3718 N.pl3   
  30 C30            3.0335    -1.8661    -1.8290 C.3     
  31 C31            3.2771    -3.3775    -1.8472 C.3     
  32 C32           -5.4192    -9.3138     3.5018 C.3     
  33 C33           -4.6102   -10.6087     3.3941 C.3     
  34 C34           -5.0521   -11.6123     4.4409 C.3     
  35 C35           -4.7183   -11.2192     5.8664 C.3     
  36 C36           -5.5426   -10.0066     6.3069 C.3     
  37 N37           -4.4104   -12.9014     4.1506 N.3     
  38 C38           -4.7276   -13.8927     5.1873 C.3     
  39 C39           -4.7919   -13.3915     2.8193 C.3     
  40 C40           -4.0287   -14.6816     2.5128 C.3     
  41 C41           -6.2462   -14.0227     5.3209 C.3     
  42 H42           -2.5935     2.2677    -0.1701 H       
  43 H43           -2.3171    -0.1768    -0.1651 H       
  44 H44            1.9391     0.3214    -0.1541 H       
  45 H45            1.6435     2.7636    -0.1543 H       
  46 H46           -0.6175     3.7333    -0.1605 H       
  47 H47           -1.3466    -1.9404     1.4821 H       
  48 H48            2.0344    -5.1908    -2.0573 H       
  49 H49            2.1124    -3.8460    -4.2285 H       
  50 H50            0.4438    -4.0771    -3.6525 H       
  51 H51            1.8252    -1.6123    -4.1467 H       
  52 H52            0.1641    -1.8430    -3.5578 H       
  53 H53           -2.8021    -4.5265     5.2595 H       
  54 H54           -3.1057    -6.1495     7.1562 H       
  55 H55           -4.0610    -7.0208     3.0769 H       
  56 H56           -4.2772    -8.1991     7.8616 H       
  57 H57           -1.4633    -7.5813     0.3544 H       
  58 H58           -0.7254    -6.2650    -0.3842 H       
  59 H59            3.6287    -1.3986    -2.6134 H       
  60 H60            3.3353    -1.4647    -0.8616 H       
  61 H61            3.6960    -3.6909    -0.8909 H       
  62 H62            3.9736    -3.6255    -2.6482 H       
  63 H63           -6.4388    -9.5436     3.8115 H       
  64 H64           -5.4316    -8.8083     2.5362 H       
  65 H65           -4.7529   -11.0388     2.4028 H       
  66 H66           -3.5533   -10.3837     3.5373 H       
  67 H67           -6.1314   -11.7419     4.3616 H       
  68 H68           -4.9329   -12.0578     6.5287 H       
  69 H69           -3.6581   -10.9746     5.9316 H       
  70 H70           -5.6449   -10.0078     7.3921 H       
  71 H71           -6.5282   -10.0455     5.8430 H       
  72 H72           -4.3034   -14.8575     4.9095 H       
  73 H73           -4.3054   -13.5707     6.1392 H       
  74 H74           -5.8635   -13.5896     2.7984 H       
  75 H75           -4.5470   -12.6379     2.0708 H       
  76 H76           -4.2322   -14.9892     1.4870 H       
  77 H77           -2.9594   -14.5090     2.6350 H       
  78 H78           -4.3508   -15.4658     3.1979 H       
  79 H79           -6.4818   -14.8052     6.0422 H       
  80 H80           -6.6633   -13.0756     5.6630 H       
  81 H81           -6.6754   -14.2801     4.3525 H       
@<TRIPOS>BOND
   1    1    2 ar
   2    1    6 ar
   3    1   42 1
   4    2    3 ar
   5    2   43 1
   6    3    4 ar
   7    3    7 1
   8    4    5 ar
   9    4   44 1
  10    5    6 ar
  11    5   45 1
  12    6   46 1
  13    7    8 ar
  14    7   12 ar
  15    8    9 ar
  16    8   47 1
  17    9   10 ar
  18    9   17 1
  19   10   11 ar
  20   11   12 ar
  21   11   13 1
  22   12   16 1
  23   13   14 1
  24   13   31 1
  25   13   48 1
  26   14   15 1
  27   14   49 1
  28   14   50 1
  29   15   16 1
  30   15   51 1
  31   15   52 1
  32   16   30 1
  33   17   18 1
  34   17   21 1
  35   18   19 2
  36   19   20 1
  37   19   22 1
  38   20   21 2
  39   21   29 1
  40   22   23 1
  41   22   53 1
  42   23   24 ar
  43   23   25 ar
  44   24   28 ar
  45   24   54 1
  46   25   26 ar
  47   25   55 1
  48   26   27 ar
  49   26   32 1
  50   27   28 ar
  51   27   36 1
  52   28   56 1
  53   29   57 1
  54   29   58 1
  55   30   31 1
  56   30   59 1
  57   30   60 1
  58   31   61 1
  59   31   62 1
  60   32   33 1
  61   32   63 1
  62   32   64 1
  63   33   34 1
  64   33   65 1
  65   33   66 1
  66   34   35 1
  67   34   37 1
  68   34   67 1
  69   35   36 1
  70   35   68 1
  71   35   69 1
  72   36   70 1
  73   36   71 1
  74   37   38 1
  75   37   39 1
  76   38   41 1
  77   38   72 1
  78   38   73 1
  79   39   40 1
  80   39   74 1
  81   39   75 1
  82   40   76 1
  83   40   77 1
  84   40   78 1
  85   41   79 1
  86   41   80 1
  87   41   81 1

#	End of record

