#	Name: ASD02030602
#	Creating user name:	WinNT
#	Creation time:	15. 06. 2019 20:15

#	Modifying user name:	WinNT
#	Modification time:	15. 06. 2019 20:15

#	Program:	/corina/corina34_cracker 3.40 0067  02.08.2006

@<TRIPOS>MOLECULE
ASD02030602
  68   72    0    0    0
SMALL
NO_CHARGES


@<TRIPOS>ATOM
   1 C1            -0.2130     1.4848    -0.0007 C.ar    
   2 C2            -0.1277     0.1089    -0.0117 C.ar    
   3 C3             1.1173    -0.5023     0.0298 C.ar    
   4 C4             2.2612     0.2747     0.0875 C.ar    
   5 C5             2.1728     1.6607     0.1050 C.ar    
   6 C6             0.9357     2.2635     0.0517 C.ar    
   7 C7             0.7695     3.7625     0.0335 C.3     
   8 C8             3.4581     2.4403     0.1975 C.3     
   9 C9             3.2578     3.8780    -0.2790 C.3     
  10 N10            2.0452     4.4052     0.3666 N.am    
  11 C11            0.3236     4.2084    -1.3605 C.3     
  12 O12            1.2512     3.7256    -2.3344 O.3     
  13 C13            0.9992     4.0363    -3.6341 C.ar    
  14 C14            2.1048     5.4380     1.2305 C.2     
  15 O15            3.1819     5.9027     1.5488 O.2     
  16 C16            0.8600     6.0057     1.7910 C.ar    
  17 C17            0.4861     4.6683    -6.2800 C.ar    
  18 C18           -0.3705     5.1104    -5.2827 C.ar    
  19 C19           -0.1146     4.7948    -3.9625 C.ar    
  20 C20            1.8592     3.5995    -4.6308 C.ar    
  21 C21            1.6033     3.9150    -5.9510 C.ar    
  22 C22            0.8364     6.4847     3.1014 C.ar    
  23 C23           -0.2950     6.0700     1.0097 C.ar    
  24 C24           -1.4533     6.6011     1.5379 C.ar    
  25 C25           -1.4726     7.0703     2.8393 C.ar    
  26 C26           -0.3296     7.0141     3.6186 C.ar    
  27 Cl27          -0.3620     7.6108     5.2485 Cl      
  28 O28            1.2131    -1.8578     0.0142 O.3     
  29 C29           -0.0102    -2.5952     0.0598 C.3     
  30 O30            0.2342     4.9789    -7.5797 O.3     
  31 C31            1.1582     4.4906    -8.5543 C.3     
  32 C32            0.2037    -3.9768    -0.5616 C.3     
  33 C33           -0.4562    -2.7538     1.5147 C.3     
  34 C34           -1.7659    -3.5432     1.5635 C.3     
  35 C35           -1.1060    -4.7663    -0.5128 C.3     
  36 C36           -1.5520    -4.9249     0.9421 C.3     
  37 H37           -1.1815     1.9614    -0.0377 H       
  38 H38           -1.0254    -0.4902    -0.0520 H       
  39 H39            3.2305    -0.2006     0.1197 H       
  40 H40            0.0153     4.0527     0.7650 H       
  41 H41            3.7977     2.4499     1.2332 H       
  42 H42            4.2146     1.9592    -0.4225 H       
  43 H43            4.1191     4.4833     0.0035 H       
  44 H44            3.1344     3.8937    -1.3618 H       
  45 H45           -0.6671     3.8056    -1.5712 H       
  46 H46            0.2890     5.2971    -1.4000 H       
  47 H47           -1.2404     5.6969    -5.5389 H       
  48 H48           -0.7820     5.1383    -3.1860 H       
  49 H49            2.7291     3.0130    -4.3746 H       
  50 H50            2.2703     3.5708    -6.7276 H       
  51 H51            1.7276     6.4412     3.7098 H       
  52 H52           -0.2816     5.7049    -0.0067 H       
  53 H53           -2.3473     6.6512     0.9339 H       
  54 H54           -2.3819     7.4858     3.2478 H       
  55 H55           -0.7779    -2.0602    -0.4993 H       
  56 H56            0.8409     4.8089    -9.5473 H       
  57 H57            2.1511     4.8887    -8.3451 H       
  58 H58            1.1873     3.4017    -8.5138 H       
  59 H59            0.5215    -3.8639    -1.5981 H       
  60 H60            0.9714    -4.5118    -0.0025 H       
  61 H61            0.3115    -3.2887     2.0738 H       
  62 H62           -0.6086    -1.7694     1.9574 H       
  63 H63           -2.0836    -3.6562     2.6000 H       
  64 H64           -2.5336    -3.0083     1.0044 H       
  65 H65           -1.8737    -4.2314    -1.0719 H       
  66 H66           -0.9536    -5.7506    -0.9555 H       
  67 H67           -0.7843    -5.4598     1.5012 H       
  68 H68           -2.4850    -5.4873     0.9769 H       
@<TRIPOS>BOND
   1    1    2 ar
   2    1    6 ar
   3    1   37 1
   4    2    3 ar
   5    2   38 1
   6    3    4 ar
   7    3   28 1
   8    4    5 ar
   9    4   39 1
  10    5    6 ar
  11    5    8 1
  12    6    7 1
  13    7   10 1
  14    7   11 1
  15    7   40 1
  16    8    9 1
  17    8   41 1
  18    8   42 1
  19    9   10 1
  20    9   43 1
  21    9   44 1
  22   10   14 am
  23   11   12 1
  24   11   45 1
  25   11   46 1
  26   12   13 1
  27   13   20 ar
  28   13   19 ar
  29   14   15 2
  30   14   16 1
  31   16   23 ar
  32   16   22 ar
  33   17   18 ar
  34   17   21 ar
  35   17   30 1
  36   18   19 ar
  37   18   47 1
  38   19   48 1
  39   20   21 ar
  40   20   49 1
  41   21   50 1
  42   22   26 ar
  43   22   51 1
  44   23   24 ar
  45   23   52 1
  46   24   25 ar
  47   24   53 1
  48   25   26 ar
  49   25   54 1
  50   26   27 1
  51   28   29 1
  52   29   32 1
  53   29   33 1
  54   29   55 1
  55   30   31 1
  56   31   56 1
  57   31   57 1
  58   31   58 1
  59   32   35 1
  60   32   59 1
  61   32   60 1
  62   33   34 1
  63   33   61 1
  64   33   62 1
  65   34   36 1
  66   34   63 1
  67   34   64 1
  68   35   36 1
  69   35   65 1
  70   35   66 1
  71   36   67 1
  72   36   68 1

#	End of record

