#	Name: ASD03331012
#	Creating user name:	WinNT
#	Creation time:	15. 06. 2019 20:38

#	Modifying user name:	WinNT
#	Modification time:	15. 06. 2019 20:38

#	Program:	/corina/corina34_cracker 3.40 0067  02.08.2006

@<TRIPOS>MOLECULE
ASD03331012
  68   71    0    0    0
SMALL
NO_CHARGES


@<TRIPOS>ATOM
   1 N1            -0.8201     1.7207    -0.3868 N.pl3   
   2 C2            -0.6630     0.4005    -0.1009 C.2     
   3 C3             0.6358    -0.2702     0.2631 C.3     
   4 N4             1.3234     0.5334     1.2858 N.3     
   5 C5             2.1871     1.5447     0.6734 C.3     
   6 C6             1.5856     2.0586    -0.6315 C.3     
   7 C7             0.2396     2.7326    -0.3519 C.3     
   8 C8            -2.1346     1.9185    -0.6950 C.2     
   9 N9            -2.7671     0.7735    -0.5867 N.2     
  10 C10           -1.8871    -0.1838    -0.2185 C.2     
  11 C11           -2.1968    -1.6056     0.0133 C.2     
  12 O12           -1.3139    -2.3745     0.3425 O.2     
  13 N13           -3.4586    -2.0540    -0.1396 N.am    
  14 C14            2.0854    -0.3234     2.2041 C.3     
  15 C15           -4.9957    -3.8483    -0.6935 C.2     
  16 C16           -3.7665    -3.4676     0.0909 C.3     
  17 C17           -4.0215    -3.6976     1.5819 C.3     
  18 C18           -4.4343    -5.1530     1.8102 C.3     
  19 O19           -5.8389    -3.0130    -0.9427 O.2     
  20 O20           -5.0723    -7.2884    -2.8017 O.3     
  21 C21           -6.0187    -6.2571    -3.0924 C.3     
  22 C22           -6.3964    -5.5377    -1.7925 C.3     
  23 N23           -5.1580    -5.1171    -1.1180 N.am    
  24 C24           -4.1018    -6.1227    -0.9213 C.3     
  25 C25           -3.8359    -6.8136    -2.2637 C.3     
  26 C26           -2.7439    -3.4003     2.3695 C.3     
  27 C27           -5.1412    -2.7694     2.0569 C.3     
  28 C28           -2.7448     3.2076    -1.0853 C.ar    
  29 C29           -3.5961     3.2744    -2.1920 C.ar    
  30 C30           -4.1632     4.4820    -2.5509 C.ar    
  31 C31           -3.8889     5.6238    -1.8158 C.ar    
  32 C32           -3.0450     5.5619    -0.7181 C.ar    
  33 C33           -2.4776     4.3608    -0.3469 C.ar    
  34 F34           -4.4459     6.8024    -2.1707 F       
  35 F35           -3.8632     2.1610    -2.9090 F       
  36 H36            0.4337    -1.2661     0.6573 H       
  37 H37            1.2660    -0.3489    -0.6228 H       
  38 H38            2.3080     2.3786     1.3649 H       
  39 H39            3.1636     1.1055     0.4692 H       
  40 H40            2.2653     2.7805    -1.0843 H       
  41 H41            1.4373     1.2233    -1.3159 H       
  42 H42            0.0461     3.4893    -1.1122 H       
  43 H43            0.2640     3.2010     0.6320 H       
  44 H44           -4.1628    -1.4408    -0.4021 H       
  45 H45            2.7828    -0.9372     1.6340 H       
  46 H46            2.6396     0.2992     2.9064 H       
  47 H47            1.3991    -0.9681     2.7533 H       
  48 H48           -2.9250    -4.0802    -0.2325 H       
  49 H49           -3.6339    -5.8141     1.4779 H       
  50 H50           -4.6224    -5.3151     2.8715 H       
  51 H51           -5.3407    -5.3667     1.2437 H       
  52 H52           -5.5774    -5.5436    -3.7883 H       
  53 H53           -6.9111    -6.6968    -3.5377 H       
  54 H54           -7.0054    -4.6630    -2.0206 H       
  55 H55           -6.9542    -6.2157    -1.1464 H       
  56 H56           -3.1913    -5.6354    -0.5725 H       
  57 H57           -4.4286    -6.8596    -0.1876 H       
  58 H58           -3.1580    -7.6536    -2.1128 H       
  59 H59           -3.3866    -6.1021    -2.9566 H       
  60 H60           -2.4498    -2.3634     2.2069 H       
  61 H61           -2.9256    -3.5641     3.4317 H       
  62 H62           -1.9463    -4.0615     2.0311 H       
  63 H63           -6.0513    -2.9812     1.4958 H       
  64 H64           -5.3228    -2.9332     3.1191 H       
  65 H65           -4.8471    -1.7325     1.8943 H       
  66 H66           -4.8209     4.5360    -3.4058 H       
  67 H67           -2.8347     6.4556    -0.1493 H       
  68 H68           -1.8241     4.3139     0.5116 H       
@<TRIPOS>BOND
   1    1    2 1
   2    1    7 1
   3    1    8 1
   4    2    3 1
   5    2   10 2
   6    3    4 1
   7    3   36 1
   8    3   37 1
   9    4    5 1
  10    4   14 1
  11    5    6 1
  12    5   38 1
  13    5   39 1
  14    6    7 1
  15    6   40 1
  16    6   41 1
  17    7   42 1
  18    7   43 1
  19    8    9 2
  20    8   28 1
  21    9   10 1
  22   10   11 1
  23   11   12 2
  24   11   13 am
  25   13   16 1
  26   13   44 1
  27   14   45 1
  28   14   46 1
  29   14   47 1
  30   15   19 2
  31   15   23 am
  32   15   16 1
  33   16   17 1
  34   16   48 1
  35   17   18 1
  36   17   26 1
  37   17   27 1
  38   18   49 1
  39   18   50 1
  40   18   51 1
  41   20   21 1
  42   20   25 1
  43   21   22 1
  44   21   52 1
  45   21   53 1
  46   22   23 1
  47   22   54 1
  48   22   55 1
  49   23   24 1
  50   24   25 1
  51   24   56 1
  52   24   57 1
  53   25   58 1
  54   25   59 1
  55   26   60 1
  56   26   61 1
  57   26   62 1
  58   27   63 1
  59   27   64 1
  60   27   65 1
  61   28   29 ar
  62   28   33 ar
  63   29   30 ar
  64   29   35 1
  65   30   31 ar
  66   30   66 1
  67   31   32 ar
  68   31   34 1
  69   32   33 ar
  70   32   67 1
  71   33   68 1

#	End of record

