#	Name: ASD01150784
#	Creating user name:	WinNT
#	Creation time:	15. 06. 2019 19:05

#	Modifying user name:	WinNT
#	Modification time:	15. 06. 2019 19:05

#	Program:	/corina/corina34_cracker 3.40 0067  02.08.2006

@<TRIPOS>MOLECULE
ASD01150784
  39   42    0    0    0
SMALL
NO_CHARGES


@<TRIPOS>ATOM
   1 C1            -0.0258     1.2548     0.4483 C.2     
   2 O2             0.6305     0.8470    -0.4871 O.2     
   3 C3             0.4078     0.9558     1.8602 C.3     
   4 C4             1.2804    -0.2808     2.0844 C.3     
   5 C5             1.8926     1.1172     2.1924 C.3     
   6 N6            -2.2185     4.1608    -0.2124 N.ar    
   7 C7            -1.1542     3.4342     0.0067 C.ar    
   8 C8            -1.2377     2.0437     0.2050 C.ar    
   9 C9            -2.4982     1.4193     0.1665 C.ar    
  10 C10           -3.6306     2.2364    -0.0732 C.ar    
  11 C11           -4.9205     1.6916    -0.1261 C.ar    
  12 C12           -5.9886     2.5078    -0.3584 C.ar    
  13 C13           -5.8115     3.8768    -0.5441 C.ar    
  14 C14           -4.5705     4.4369    -0.4986 C.ar    
  15 C15           -3.4473     3.6282    -0.2612 C.ar    
  16 C16            0.1960     4.1023     0.0474 C.3     
  17 C17           -2.6358    -0.0372     0.3685 C.ar    
  18 C18           -3.3192    -0.5290     1.4835 C.ar    
  19 C19           -3.4445    -1.8894     1.6668 C.ar    
  20 C20           -2.8940    -2.7692     0.7473 C.ar    
  21 C21           -2.2144    -2.2868    -0.3608 C.ar    
  22 C22           -2.0882    -0.9284    -0.5578 C.ar    
  23 F23           -3.0199    -4.1016     0.9321 F       
  24 Br24          -7.7292     1.7722    -0.4298 Br      
  25 H25           -0.3127     1.2110     2.6373 H       
  26 H26            1.1342    -0.8390     3.0091 H       
  27 H27            1.5408    -0.8781     1.2106 H       
  28 H28            2.5558     1.4396     1.3896 H       
  29 H29            2.1492     1.4787     3.1881 H       
  30 H30           -5.0683     0.6312     0.0159 H       
  31 H31           -6.6714     4.5040    -0.7274 H       
  32 H32           -4.4508     5.5003    -0.6447 H       
  33 H33            0.4571     4.3310     1.0807 H       
  34 H34            0.9451     3.4340    -0.3773 H       
  35 H35            0.1623     5.0252    -0.5316 H       
  36 H36           -3.7480     0.1554     2.2005 H       
  37 H37           -3.9722    -2.2707     2.5285 H       
  38 H38           -1.7870    -2.9767    -1.0734 H       
  39 H39           -1.5631    -0.5537    -1.4240 H       
@<TRIPOS>BOND
   1    1    2 2
   2    1    3 1
   3    1    8 1
   4    3    4 1
   5    3    5 1
   6    3   25 1
   7    4    5 1
   8    4   26 1
   9    4   27 1
  10    5   28 1
  11    5   29 1
  12    6    7 ar
  13    6   15 ar
  14    7    8 ar
  15    7   16 1
  16    8    9 ar
  17    9   10 ar
  18    9   17 1
  19   10   11 ar
  20   10   15 ar
  21   11   12 ar
  22   11   30 1
  23   12   13 ar
  24   12   24 1
  25   13   14 ar
  26   13   31 1
  27   14   15 ar
  28   14   32 1
  29   16   33 1
  30   16   34 1
  31   16   35 1
  32   17   18 ar
  33   17   22 ar
  34   18   19 ar
  35   18   36 1
  36   19   20 ar
  37   19   37 1
  38   20   21 ar
  39   20   23 1
  40   21   22 ar
  41   21   38 1
  42   22   39 1

#	End of record

