#	Name: ASD01815634
#	Creating user name:	WinNT
#	Creation time:	15. 06. 2019 19:33

#	Modifying user name:	WinNT
#	Modification time:	15. 06. 2019 19:33

#	Program:	/corina/corina34_cracker 3.40 0067  02.08.2006

@<TRIPOS>MOLECULE
ASD01815634
  38   40    0    0    0
SMALL
NO_CHARGES


@<TRIPOS>ATOM
   1 C1            -0.0167     1.3832     0.0096 C.ar    
   2 C2             0.0021    -0.0041     0.0020 C.ar    
   3 C3             1.1959    -0.6919    -0.0126 C.ar    
   4 C4             2.4007     0.0059    -0.0204 C.ar    
   5 C5             2.3789     1.4111    -0.0132 C.ar    
   6 C6             1.1632     2.0941     0.0022 C.ar    
   7 N7             3.6013    -0.6705    -0.0346 N.pl3   
   8 C8             4.7860    -0.0462    -0.0417 C.2     
   9 C9             4.8924     1.3300    -0.0353 C.2     
  10 C10            3.6622     2.1381    -0.0216 C.2     
  11 O11            3.7023     3.3559    -0.0158 O.2     
  12 C12            6.2118     1.9776    -0.0420 C.2     
  13 O13            7.2212     1.3003    -0.0533 O.2     
  14 O14            6.3025     3.3226    -0.0357 O.3     
  15 C15            3.5807    -2.1353    -0.0418 C.3     
  16 C16            3.5609    -2.6305    -1.4650 C.ar    
  17 C17            4.7497    -2.8740    -2.1276 C.ar    
  18 C18            4.7342    -3.3280    -3.4322 C.ar    
  19 C19            3.5245    -3.5394    -4.0775 C.ar    
  20 C20            2.3330    -3.2943    -3.4105 C.ar    
  21 C21            2.3538    -2.8458    -2.1040 C.ar    
  22 O22            3.5066    -3.9855    -5.3611 O.3     
  23 C23            2.2250    -4.1809    -5.9622 C.3     
  24 F24            1.5036    -5.1265    -5.2255 F       
  25 F25            1.5266    -2.9687    -5.9758 F       
  26 H26           -0.9606     1.9081     0.0170 H       
  27 H27           -0.9293    -0.5508     0.0080 H       
  28 H28            1.1970    -1.7719    -0.0177 H       
  29 H29            1.1468     3.1740     0.0074 H       
  30 H30            5.6885    -0.6393    -0.0524 H       
  31 H31            7.1917     3.7026    -0.0405 H       
  32 H32            4.4701    -2.5136     0.4622 H       
  33 H33            2.6904    -2.4887     0.4783 H       
  34 H34            5.6912    -2.7089    -1.6249 H       
  35 H35            5.6631    -3.5177    -3.9495 H       
  36 H36            1.3899    -3.4582    -3.9106 H       
  37 H37            1.4266    -2.6548    -1.5842 H       
  38 H38            2.3535    -4.5376    -6.9841 H       
@<TRIPOS>BOND
   1    1    2 ar
   2    1    6 ar
   3    1   26 1
   4    2    3 ar
   5    2   27 1
   6    3    4 ar
   7    3   28 1
   8    4    5 ar
   9    4    7 1
  10    5    6 ar
  11    5   10 1
  12    6   29 1
  13    7    8 1
  14    7   15 1
  15    8    9 2
  16    8   30 1
  17    9   10 1
  18    9   12 1
  19   10   11 2
  20   12   13 2
  21   12   14 1
  22   14   31 1
  23   15   16 1
  24   15   32 1
  25   15   33 1
  26   16   17 ar
  27   16   21 ar
  28   17   18 ar
  29   17   34 1
  30   18   19 ar
  31   18   35 1
  32   19   20 ar
  33   19   22 1
  34   20   21 ar
  35   20   36 1
  36   21   37 1
  37   22   23 1
  38   23   24 1
  39   23   25 1
  40   23   38 1

#	End of record

