#	Name: ASD05490117
#	Creating user name:	WinNT
#	Creation time:	15. 06. 2019 21:01

#	Modifying user name:	WinNT
#	Modification time:	15. 06. 2019 21:01

#	Program:	/corina/corina34_cracker 3.40 0067  02.08.2006

@<TRIPOS>MOLECULE
ASD05490117
  72   77    0    0    0
SMALL
NO_CHARGES


@<TRIPOS>ATOM
   1 O1            -2.2665     1.8171     0.0253 O.2     
   2 N2            -0.0178     1.4608     0.0101 N.am    
   3 O3             4.5863     2.8160    -0.0274 O.3     
   4 N4             2.8511     4.3367    -0.0019 N.ar    
   5 C5             1.5540     4.6376     0.0121 C.ar    
   6 C6             3.2565     3.0770    -0.0133 C.ar    
   7 N7             2.4054     2.0644    -0.0102 N.ar    
   8 C8             1.0946     2.2826     0.0039 C.ar    
   9 C9             0.6266     3.5971     0.0154 C.ar    
  10 N10            1.1342     5.9598     0.0237 N.pl3   
  11 C11           -1.1223     2.2312     0.0189 C.2     
  12 N12           -0.7663     3.5310     0.0284 N.am    
  13 C13            5.4681     3.9405    -0.0289 C.3     
  14 C14            6.9178     3.4517    -0.0454 C.3     
  15 C15            7.8616     4.6514    -0.1729 C.3     
  16 C16            9.3102     4.1602    -0.1094 C.3     
  17 C17            0.0021    -0.0041     0.0020 C.3     
  18 C18            0.0225    -0.5140     1.4200 C.ar    
  19 C19           -1.1674    -0.7635     2.0797 C.ar    
  20 C20           -1.1546    -1.2305     3.3784 C.ar    
  21 C21            0.0599    -1.4511     4.0247 C.ar    
  22 C22            1.2555    -1.1986     3.3552 C.ar    
  23 C23            1.2310    -0.7362     2.0550 C.ar    
  24 C24            0.0800    -1.9528     5.4211 C.ar    
  25 O25            9.5192     3.4543     1.1154 O.3     
  26 C26            8.6972     2.2954     1.2684 C.3     
  27 C27            7.2240     2.7117     1.2603 C.3     
  28 C28            1.2945    -2.1734     6.0675 C.ar    
  29 C29           -1.1157    -2.1995     6.0927 C.ar    
  30 C30           -1.0912    -2.6661     7.3914 C.ar    
  31 C31            0.1174    -2.8883     8.0264 C.ar    
  32 C32            1.3073    -2.6401     7.3663 C.ar    
  33 C33            0.1377    -3.3969     9.4449 C.3     
  34 N34            0.1502    -4.8658     9.4383 N.3     
  35 C35            0.4091    -5.3981    10.7887 C.3     
  36 C36           -0.7690    -6.3282    11.1471 C.3     
  37 C37           -1.3431    -6.7157     9.7589 C.3     
  38 C38           -1.1406    -5.4045     8.9594 C.3     
  39 H39            1.7881     6.6762     0.0216 H       
  40 H40            0.1868     6.1678     0.0339 H       
  41 H41           -1.3727     4.2880     0.0359 H       
  42 H42            5.2796     4.5488    -0.9135 H       
  43 H43            5.2964     4.5381     0.8664 H       
  44 H44            7.0663     2.7796    -0.8906 H       
  45 H45            7.6881     5.1518    -1.1256 H       
  46 H46            7.6772     5.3484     0.6446 H       
  47 H47            9.5056     3.4949    -0.9504 H       
  48 H48            9.9860     5.0141    -0.1567 H       
  49 H49           -0.8878    -0.3767    -0.5053 H       
  50 H50            0.8920    -0.3525    -0.5222 H       
  51 H51           -2.1082    -0.5921     1.5778 H       
  52 H52           -2.0843    -1.4243     3.8928 H       
  53 H53            2.1997    -1.3679     3.8515 H       
  54 H54            2.1571    -0.5405     1.5350 H       
  55 H55            8.8846     1.6056     0.4454 H       
  56 H56            8.9314     1.8059     2.2137 H       
  57 H57            7.0267     3.3695     2.1067 H       
  58 H58            6.5945     1.8248     1.3325 H       
  59 H59            2.2241    -1.9799     5.5529 H       
  60 H60           -2.0599    -2.0256     5.5980 H       
  61 H61           -2.0173    -2.8576     7.9129 H       
  62 H62            2.2481    -2.8154     7.8668 H       
  63 H63            1.0303    -3.0282     9.9503 H       
  64 H64           -0.7494    -3.0434     9.9704 H       
  65 H65            1.3415    -5.9625    10.7924 H       
  66 H66            0.4661    -4.5789    11.5055 H       
  67 H67           -0.4147    -7.2118    11.6780 H       
  68 H68           -1.5146    -5.7957    11.7375 H       
  69 H69           -0.7757    -7.5344     9.3164 H       
  70 H70           -2.4006    -6.9698     9.8309 H       
  71 H71           -1.9469    -4.7024     9.1715 H       
  72 H72           -1.0910    -5.6152     7.8911 H       
@<TRIPOS>BOND
   1    1   11 2
   2    2   17 1
   3    2    8 1
   4    2   11 am
   5    3   13 1
   6    3    6 1
   7    4    5 ar
   8    4    6 ar
   9    5   10 1
  10    5    9 ar
  11    6    7 ar
  12    7    8 ar
  13    8    9 ar
  14    9   12 1
  15   10   39 1
  16   10   40 1
  17   11   12 am
  18   12   41 1
  19   13   14 1
  20   13   42 1
  21   13   43 1
  22   14   15 1
  23   14   27 1
  24   14   44 1
  25   15   16 1
  26   15   45 1
  27   15   46 1
  28   16   25 1
  29   16   47 1
  30   16   48 1
  31   17   18 1
  32   17   49 1
  33   17   50 1
  34   18   19 ar
  35   18   23 ar
  36   19   20 ar
  37   19   51 1
  38   20   21 ar
  39   20   52 1
  40   21   22 ar
  41   21   24 1
  42   22   23 ar
  43   22   53 1
  44   23   54 1
  45   24   28 ar
  46   24   29 ar
  47   25   26 1
  48   26   27 1
  49   26   55 1
  50   26   56 1
  51   27   57 1
  52   27   58 1
  53   28   32 ar
  54   28   59 1
  55   29   30 ar
  56   29   60 1
  57   30   31 ar
  58   30   61 1
  59   31   32 ar
  60   31   33 1
  61   32   62 1
  62   33   34 1
  63   33   63 1
  64   33   64 1
  65   34   35 1
  66   34   38 1
  67   35   36 1
  68   35   65 1
  69   35   66 1
  70   36   37 1
  71   36   67 1
  72   36   68 1
  73   37   38 1
  74   37   69 1
  75   37   70 1
  76   38   71 1
  77   38   72 1

#	End of record

