#	Name: ASD01140403
#	Creating user name:	WinNT
#	Creation time:	15. 06. 2019 19:00

#	Modifying user name:	WinNT
#	Modification time:	15. 06. 2019 19:00

#	Program:	/corina/corina34_cracker 3.40 0067  02.08.2006

@<TRIPOS>MOLECULE
ASD01140403
  40   44    0    0    0
SMALL
NO_CHARGES


@<TRIPOS>ATOM
   1 C1            -0.0170     1.4031     0.0098 C.2     
   2 C2             0.0021    -0.0041     0.0020 C.2     
   3 C3             1.1978    -0.6509    -0.0129 C.2     
   4 C4             2.4013     0.0859    -0.0204 C.2     
   5 N5             2.3844     1.4010    -0.0128 N.2     
   6 N6             1.1720     2.0929     0.0021 N.pl3   
   7 N7            -0.4805     3.4868     0.0230 N.2     
   8 N8            -0.9878     2.3041     0.0186 N.2     
   9 C9             0.8375     3.4155     0.0124 C.2     
  10 N10            7.4346    -2.3976    -0.0805 N.pl3   
  11 C11            8.2483    -1.2975    -0.0826 C.2     
  12 C12            7.5063    -0.1791    -0.0700 C.2     
  13 C13            6.1021    -0.5977    -0.0590 C.ar    
  14 C14            4.8877     0.0875    -0.0442 C.ar    
  15 C15            3.6998    -0.6308    -0.0367 C.ar    
  16 C16            3.7254    -2.0298    -0.0440 C.ar    
  17 C17            4.9113    -2.7046    -0.0585 C.ar    
  18 C18            6.1154    -2.0052    -0.0662 C.ar    
  19 C19            7.8987    -3.7870    -0.0974 C.3     
  20 C20            1.7763     4.5566     0.0100 C.ar    
  21 C21            1.2889     5.8669     0.0217 C.ar    
  22 C22            2.1722     6.9292     0.0193 C.ar    
  23 C23            3.5361     6.6987     0.0050 C.ar    
  24 C24            4.0259     5.4027    -0.0066 C.ar    
  25 C25            3.1534     4.3310     0.0019 C.ar    
  26 F26            5.3593     5.1861    -0.0206 F       
  27 F27           -0.0428     6.0938     0.0348 F       
  28 H28           -0.9219    -0.5633     0.0082 H       
  29 H29            1.2266    -1.7305    -0.0186 H       
  30 H30            9.3279    -1.3250    -0.0923 H       
  31 H31            7.8743     0.8363    -0.0680 H       
  32 H32            4.8714     1.1674    -0.0382 H       
  33 H33            2.7968    -2.5813    -0.0377 H       
  34 H34            4.9161    -3.7846    -0.0636 H       
  35 H35            8.0269    -4.1397     0.9260 H       
  36 H36            7.1633    -4.4096    -0.6069 H       
  37 H37            8.8514    -3.8455    -0.6238 H       
  38 H38            1.7970     7.9419     0.0283 H       
  39 H39            4.2223     7.5327     0.0025 H       
  40 H40            3.5364     3.3212    -0.0027 H       
@<TRIPOS>BOND
   1    1    2 1
   2    1    6 1
   3    1    8 2
   4    2    3 2
   5    2   28 1
   6    3    4 1
   7    3   29 1
   8    4    5 2
   9    4   15 1
  10    5    6 1
  11    6    9 1
  12    7    8 1
  13    7    9 2
  14    9   20 1
  15   10   11 1
  16   10   18 1
  17   10   19 1
  18   11   12 2
  19   11   30 1
  20   12   13 1
  21   12   31 1
  22   13   14 ar
  23   13   18 ar
  24   14   15 ar
  25   14   32 1
  26   15   16 ar
  27   16   17 ar
  28   16   33 1
  29   17   18 ar
  30   17   34 1
  31   19   35 1
  32   19   36 1
  33   19   37 1
  34   20   21 ar
  35   20   25 ar
  36   21   22 ar
  37   21   27 1
  38   22   23 ar
  39   22   38 1
  40   23   24 ar
  41   23   39 1
  42   24   25 ar
  43   24   26 1
  44   25   40 1

#	End of record

