#	Name: ASD07190005
#	Creating user name:	WinNT
#	Creation time:	15. 06. 2019 21:09

#	Modifying user name:	WinNT
#	Modification time:	15. 06. 2019 21:09

#	Program:	/corina/corina34_cracker 3.40 0067  02.08.2006

@<TRIPOS>MOLECULE
ASD07190005
  45   48    0    0    0
SMALL
NO_CHARGES


@<TRIPOS>ATOM
   1 C1            -0.0167     1.3811     0.0096 C.ar    
   2 C2             0.0021    -0.0041     0.0020 C.ar    
   3 C3             1.2076    -0.6805    -0.0132 C.ar    
   4 C4             2.4039     0.0343    -0.0208 C.ar    
   5 C5             2.3775     1.4285    -0.0131 C.ar    
   6 C6             1.1687     2.0938     0.0021 C.ar    
   7 C7             3.7000    -0.6849    -0.0366 C.2     
   8 N8             3.9626    -1.8215     0.5614 N.2     
   9 N9             5.2899    -2.1913     0.3221 N.pl3   
  10 C10            5.8900    -1.2413    -0.4640 C.ar    
  11 C11            4.9199    -0.2575    -0.7294 C.ar    
  12 C12            5.9374    -3.4029     0.8312 C.3     
  13 C13            5.7533    -4.5244    -0.1584 C.2     
  14 O14            5.1415    -4.3308    -1.1875 O.2     
  15 N15            6.2686    -5.7427     0.1002 N.am    
  16 F16           -1.1591    -0.6946     0.0099 F       
  17 C17            5.2515     0.8472    -1.5178 C.ar    
  18 C18            6.5145     0.9617    -2.0237 C.ar    
  19 C19            7.4720    -0.0101    -1.7613 C.ar    
  20 C20            7.1696    -1.1011    -0.9967 C.ar    
  21 C21            6.0974    -6.8460    -0.8548 C.3     
  22 C22            7.4745    -7.4304    -1.1850 C.3     
  23 C23            8.1807    -7.8269     0.1135 C.3     
  24 C24            8.3794    -6.5864     0.9874 C.3     
  25 C25            7.0174    -5.9910     1.3397 C.3     
  26 H26           -0.9603     1.9064     0.0170 H       
  27 H27            1.2223    -1.7604    -0.0188 H       
  28 H28            3.3019     1.9868    -0.0186 H       
  29 H29            1.1482     3.1736     0.0078 H       
  30 H30            7.0016    -3.2141     0.9725 H       
  31 H31            5.4881    -3.6819     1.7843 H       
  32 H32            4.5124     1.6066    -1.7264 H       
  33 H33            6.7714     1.8152    -2.6335 H       
  34 H34            8.4662     0.0964    -2.1695 H       
  35 H35            7.9229    -1.8495    -0.7997 H       
  36 H36            5.4693    -7.6187    -0.4116 H       
  37 H37            5.6313    -6.4715    -1.7661 H       
  38 H38            7.3542    -8.3102    -1.8171 H       
  39 H39            8.0703    -6.6835    -1.7098 H       
  40 H40            7.5725    -8.5553     0.6498 H       
  41 H41            9.1507    -8.2657    -0.1201 H       
  42 H42            8.9032    -6.8656     1.9016 H       
  43 H43            8.9666    -5.8475     0.4422 H       
  44 H44            7.1567    -5.0534     1.8780 H       
  45 H45            6.4616    -6.6927     1.9617 H       
@<TRIPOS>BOND
   1    1    2 ar
   2    1    6 ar
   3    1   26 1
   4    2    3 ar
   5    2   16 1
   6    3    4 ar
   7    3   27 1
   8    4    5 ar
   9    4    7 1
  10    5    6 ar
  11    5   28 1
  12    6   29 1
  13    7    8 2
  14    7   11 1
  15    8    9 1
  16    9   10 1
  17    9   12 1
  18   10   11 ar
  19   10   20 ar
  20   11   17 ar
  21   12   13 1
  22   12   30 1
  23   12   31 1
  24   13   14 2
  25   13   15 am
  26   15   21 1
  27   15   25 1
  28   17   18 ar
  29   17   32 1
  30   18   19 ar
  31   18   33 1
  32   19   20 ar
  33   19   34 1
  34   20   35 1
  35   21   22 1
  36   21   36 1
  37   21   37 1
  38   22   23 1
  39   22   38 1
  40   22   39 1
  41   23   24 1
  42   23   40 1
  43   23   41 1
  44   24   25 1
  45   24   42 1
  46   24   43 1
  47   25   44 1
  48   25   45 1

#	End of record

