#	Name: ASD02030006
#	Creating user name:	WinNT
#	Creation time:	15. 06. 2019 20:14

#	Modifying user name:	WinNT
#	Modification time:	15. 06. 2019 20:14

#	Program:	/corina/corina34_cracker 3.40 0067  02.08.2006

@<TRIPOS>MOLECULE
ASD02030006
  59   60    0    0    0
SMALL
NO_CHARGES


@<TRIPOS>ATOM
   1 C1             0.0971     0.0322    -0.0911 C.ar    
   2 C2            -0.2085    -1.3076    -0.2588 C.ar    
   3 C3            -1.4890    -1.7620     0.0014 C.ar    
   4 C4            -2.4623    -0.8787     0.4285 C.ar    
   5 C5            -2.1573     0.4595     0.5955 C.ar    
   6 C6            -0.8769     0.9141     0.3420 C.ar    
   7 Cl7            1.7034     0.6041    -0.4173 Cl      
   8 C8            -3.8570    -1.3741     0.7118 C.3     
   9 C9            -3.9597    -1.7976     2.1784 C.3     
  10 N10           -5.3156    -2.2793     2.4538 N.am    
  11 C11           -5.6394    -3.6970     2.2765 C.3     
  12 C12           -5.5324    -4.4168     3.6224 C.3     
  13 C13           -5.8705    -5.8974     3.4373 C.3     
  14 O14           -5.8844    -6.5457     4.7107 O.3     
  15 C15           -6.1704    -7.8752     4.7236 C.ar    
  16 C16           -6.2005    -8.5661     5.9259 C.ar    
  17 C17           -6.4912    -9.9162     5.9399 C.ar    
  18 C18           -6.7534   -10.5819     4.7499 C.ar    
  19 C19           -6.7230    -9.8895     3.5466 C.ar    
  20 C20           -6.4373    -8.5383     3.5349 C.ar    
  21 N21           -7.0476   -11.9500     4.7631 N.am    
  22 S22           -5.9130   -13.0458     4.2591 S.o2    
  23 C23           -4.5444   -12.8532     5.4341 C.3     
  24 O24           -6.5438   -14.3075     4.4309 O.2     
  25 O25           -5.5313   -12.5871     2.9695 O.2     
  26 O26           -4.1790    -4.2896     4.1330 O.3     
  27 Cl27           1.0143    -2.4167    -0.7958 Cl      
  28 C28           -6.2651    -1.4181     2.8703 C.2     
  29 C29           -7.6866    -1.8886     3.0409 C.3     
  30 O30           -5.9754    -0.2646     3.1078 O.2     
  31 C31           -4.0293    -4.2807     5.4669 C.2     
  32 O32           -4.9970    -4.3760     6.1841 O.2     
  33 C33           -2.6542    -4.1518     6.0699 C.3     
  34 H34           -1.7282    -2.8071    -0.1295 H       
  35 H35           -2.9186     1.1491     0.9289 H       
  36 H36           -0.6393     1.9595     0.4726 H       
  37 H37           -4.5733    -0.5769     0.5128 H       
  38 H38           -4.0765    -2.2281     0.0708 H       
  39 H39           -3.2435    -2.5948     2.3774 H       
  40 H40           -3.7403    -0.9437     2.8193 H       
  41 H41           -6.6553    -3.7925     1.8933 H       
  42 H42           -4.9407    -4.1436     1.5691 H       
  43 H43           -6.2311    -3.9702     4.3299 H       
  44 H44           -6.8516    -5.9905     2.9714 H       
  45 H45           -5.1198    -6.3646     2.7999 H       
  46 H46           -5.9962    -8.0482     6.8513 H       
  47 H47           -6.5143   -10.4540     6.8762 H       
  48 H48           -6.9268   -10.4065     2.6206 H       
  49 H49           -6.4140    -7.9995     2.5992 H       
  50 H50           -7.9162   -12.2563     5.0676 H       
  51 H51           -4.8752   -13.1507     6.4292 H       
  52 H52           -3.7095   -13.4824     5.1256 H       
  53 H53           -4.2262   -11.8109     5.4535 H       
  54 H54           -7.7677    -2.9255     2.7146 H       
  55 H55           -7.9702    -1.8147     4.0907 H       
  56 H56           -8.3499    -1.2659     2.4406 H       
  57 H57           -1.9137    -4.0778     5.2735 H       
  58 H58           -2.6118    -3.2562     6.6898 H       
  59 H59           -2.4426    -5.0281     6.6826 H       
@<TRIPOS>BOND
   1    1    2 ar
   2    1    7 1
   3    1    6 ar
   4    2    3 ar
   5    2   27 1
   6    3    4 ar
   7    3   34 1
   8    4    5 ar
   9    4    8 1
  10    5    6 ar
  11    5   35 1
  12    6   36 1
  13    8    9 1
  14    8   37 1
  15    8   38 1
  16    9   10 1
  17    9   39 1
  18    9   40 1
  19   10   11 1
  20   10   28 am
  21   11   12 1
  22   11   41 1
  23   11   42 1
  24   12   13 1
  25   12   26 1
  26   12   43 1
  27   13   14 1
  28   13   44 1
  29   13   45 1
  30   14   15 1
  31   15   16 ar
  32   15   20 ar
  33   16   17 ar
  34   16   46 1
  35   17   18 ar
  36   17   47 1
  37   18   19 ar
  38   18   21 1
  39   19   20 ar
  40   19   48 1
  41   20   49 1
  42   21   22 am
  43   21   50 1
  44   22   23 1
  45   22   24 2
  46   22   25 2
  47   23   51 1
  48   23   52 1
  49   23   53 1
  50   26   31 1
  51   28   29 1
  52   28   30 2
  53   29   54 1
  54   29   55 1
  55   29   56 1
  56   31   32 2
  57   31   33 1
  58   33   57 1
  59   33   58 1
  60   33   59 1

#	End of record

