#	Name: ASD02500716
#	Creating user name:	WinNT
#	Creation time:	15. 06. 2019 20:23

#	Modifying user name:	WinNT
#	Modification time:	15. 06. 2019 20:23

#	Program:	/corina/corina34_cracker 3.40 0067  02.08.2006

@<TRIPOS>MOLECULE
ASD02500716
  67   71    0    0    0
SMALL
NO_CHARGES


@<TRIPOS>ATOM
   1 N1            -3.4426     5.5748    -0.0332 N.ar    
   2 C2            -4.5684     6.2135    -0.2402 C.ar    
   3 C3            -5.6821     6.0194     0.5743 C.ar    
   4 C4            -5.6171     5.1438     1.6205 C.ar    
   5 C5            -4.4066     4.4593     1.8395 C.ar    
   6 C6            -4.2645     3.5446     2.8949 C.ar    
   7 C7            -3.0769     2.9028     3.0738 C.ar    
   8 C8            -1.9998     3.1421     2.2232 C.ar    
   9 C9            -2.1027     4.0223     1.1902 C.ar    
  10 C10           -3.3123     4.7043     0.9730 C.ar    
  11 S11           -0.7244     4.3064     0.1298 S.o2    
  12 O12           -0.5555     5.7156     0.0603 O.2     
  13 O13            0.3010     3.4210     0.5586 O.2     
  14 N14           -1.1640     3.8126    -1.3885 N.am    
  15 C15           -1.3884     2.4642    -1.6432 C.ar    
  16 C16           -1.0710     1.9305    -2.8895 C.ar    
  17 C17           -1.2918     0.5966    -3.1446 C.ar    
  18 C18           -1.8356    -0.2230    -2.1510 C.ar    
  19 C19           -2.1532     0.3158    -0.9010 C.ar    
  20 C20           -1.9247     1.6496    -0.6501 C.ar    
  21 C21           -0.4853     2.8147    -3.9600 C.3     
  22 C22           -2.0741    -1.6535    -2.4215 C.2     
  23 O23           -2.5201    -2.0027    -3.4975 O.2     
  24 N24           -1.7977    -2.5733    -1.4760 N.am    
  25 C25           -1.9322    -3.9365    -1.7957 C.3     
  26 C26           -2.9452    -4.6203    -0.8425 C.3     
  27 N27           -2.3316    -4.7524     0.4630 N.3     
  28 C28           -2.6251    -3.6575     1.4110 C.3     
  29 C29           -2.5500    -2.2671     0.7823 C.3     
  30 C30           -1.3585    -2.1144    -0.1424 C.3     
  31 C31           -2.6371    -6.0602     1.0583 C.3     
  32 C32           -1.9848    -7.1475     0.2440 C.ar    
  33 C33           -0.7034    -7.5662     0.5502 C.ar    
  34 C34           -0.1051    -8.5636    -0.1968 C.ar    
  35 C35           -0.7882    -9.1426    -1.2499 C.ar    
  36 C36           -2.0699    -8.7246    -1.5556 C.ar    
  37 C37           -2.6699    -7.7302    -0.8058 C.ar    
  38 H38           -4.6344     6.9090    -1.0638 H       
  39 H39           -6.5958     6.5610     0.3788 H       
  40 H40           -6.4705     4.9814     2.2621 H       
  41 H41           -5.0921     3.3514     3.5614 H       
  42 H42           -2.9684     2.1993     3.8861 H       
  43 H43           -1.0680     2.6210     2.3864 H       
  44 H44           -1.2650     4.4640    -2.1001 H       
  45 H45           -1.0457     0.1832    -4.1116 H       
  46 H46           -2.5734    -0.3148    -0.1315 H       
  47 H47           -2.1654     2.0655     0.3171 H       
  48 H48            0.6019     2.8075    -3.8827 H       
  49 H49           -0.7823     2.4433    -4.9408 H       
  50 H50           -0.8520     3.8331    -3.8309 H       
  51 H51           -2.2839    -4.0320    -2.8230 H       
  52 H52           -0.9627    -4.4255    -1.7011 H       
  53 H53           -3.8444    -4.0092    -0.7644 H       
  54 H54           -3.2020    -5.6070    -1.2280 H       
  55 H55           -3.6272    -3.8044     1.8138 H       
  56 H56           -1.9111    -3.7074     2.2331 H       
  57 H57           -3.4634    -2.0863     0.2157 H       
  58 H58           -2.4769    -1.5242     1.5766 H       
  59 H59           -0.5309    -2.7304     0.2094 H       
  60 H60           -1.0519    -1.0695    -0.1905 H       
  61 H61           -2.2561    -6.0926     2.0791 H       
  62 H62           -3.7164    -6.2116     1.0683 H       
  63 H63           -0.1697    -7.1138     1.3730 H       
  64 H64            0.8962    -8.8902     0.0420 H       
  65 H65           -0.3205    -9.9213    -1.8340 H       
  66 H66           -2.6035    -9.1767    -2.3785 H       
  67 H67           -3.6726    -7.4062    -1.0423 H       
@<TRIPOS>BOND
   1    1    2 ar
   2    1   10 ar
   3    2    3 ar
   4    2   38 1
   5    3    4 ar
   6    3   39 1
   7    4    5 ar
   8    4   40 1
   9    5    6 ar
  10    5   10 ar
  11    6    7 ar
  12    6   41 1
  13    7    8 ar
  14    7   42 1
  15    8    9 ar
  16    8   43 1
  17    9   10 ar
  18    9   11 1
  19   11   12 2
  20   11   13 2
  21   11   14 am
  22   14   15 1
  23   14   44 1
  24   15   16 ar
  25   15   20 ar
  26   16   17 ar
  27   16   21 1
  28   17   18 ar
  29   17   45 1
  30   18   19 ar
  31   18   22 1
  32   19   20 ar
  33   19   46 1
  34   20   47 1
  35   21   48 1
  36   21   49 1
  37   21   50 1
  38   22   23 2
  39   22   24 am
  40   24   25 1
  41   24   30 1
  42   25   26 1
  43   25   51 1
  44   25   52 1
  45   26   27 1
  46   26   53 1
  47   26   54 1
  48   27   28 1
  49   27   31 1
  50   28   29 1
  51   28   55 1
  52   28   56 1
  53   29   30 1
  54   29   57 1
  55   29   58 1
  56   30   59 1
  57   30   60 1
  58   31   32 1
  59   31   61 1
  60   31   62 1
  61   32   33 ar
  62   32   37 ar
  63   33   34 ar
  64   33   63 1
  65   34   35 ar
  66   34   64 1
  67   35   36 ar
  68   35   65 1
  69   36   37 ar
  70   36   66 1
  71   37   67 1

#	End of record

