#	Name: ASD03092383
#	Creating user name:	WinNT
#	Creation time:	15. 06. 2019 20:32

#	Modifying user name:	WinNT
#	Modification time:	15. 06. 2019 20:32

#	Program:	/corina/corina34_cracker 3.40 0067  02.08.2006

@<TRIPOS>MOLECULE
ASD03092383
  56   59    0    0    0
SMALL
NO_CHARGES


@<TRIPOS>ATOM
   1 C1            -0.1121     1.2349    -0.7222 C.3     
   2 C2            -0.1592    -0.2895    -0.9197 C.3     
   3 C3             1.2704    -0.3279    -0.3543 C.3     
   4 C4             1.4172     1.1239    -0.8398 C.3     
   5 C5            -0.7495     2.0093    -1.8470 C.2     
   6 O6            -1.2352     1.4205    -2.7895 O.2     
   7 N7            -0.7797     3.3560    -1.8055 N.am    
   8 C8            -1.3993     4.1089    -2.8989 C.3     
   9 S9            -1.7702     7.9589    -1.8803 S.3     
  10 C10           -0.2748     7.5644    -2.6085 C.2     
  11 N11           -0.2381     6.3004    -2.9065 N.2     
  12 C12           -1.3015     5.5849    -2.6111 C.2     
  13 C13           -2.2977     6.2845    -2.0285 C.2     
  14 C14           -5.9897     5.8456    -1.4989 C.ar    
  15 C15           -4.7970     6.3873    -1.9273 C.ar    
  16 C16           -3.5992     5.7424    -1.5920 C.ar    
  17 C17           -3.6717     4.5678    -0.8309 C.ar    
  18 C18           -4.9080     4.0973    -0.4454 C.ar    
  19 N19           -6.0126     4.7366    -0.7833 N.ar    
  20 C20           -7.2853     6.5323    -1.8470 C.3     
  21 N21            0.7495     8.4626    -2.8468 N.3     
  22 C22            0.3847     9.8113    -2.3893 C.3     
  23 C23            1.5193    10.7827    -2.7254 C.3     
  24 O24            2.7317    10.3173    -2.1265 O.3     
  25 C25            3.1172     9.0069    -2.5503 C.3     
  26 C26            1.9988     8.0175    -2.2123 C.3     
  27 C27            4.4008     8.5932    -1.8278 C.3     
  28 C28            1.1808    12.1718    -2.1807 C.3     
  29 H29           -0.4520     1.5584     0.2616 H       
  30 H30           -0.8925    -0.7893    -0.2869 H       
  31 H31           -0.2237    -0.5926    -1.9647 H       
  32 H32            1.3085    -0.4316     0.7301 H       
  33 H33            1.9256    -1.0294    -0.8709 H       
  34 H34            1.7836     1.2072    -1.8630 H       
  35 H35            1.9564     1.7651    -0.1425 H       
  36 H36           -0.3912     3.8269    -1.0517 H       
  37 H37           -0.8824     3.8857    -3.8323 H       
  38 H38           -2.4478     3.8245    -2.9873 H       
  39 H39           -4.7858     7.2948    -2.5128 H       
  40 H40           -2.7723     4.0394    -0.5511 H       
  41 H41           -4.9744     3.1927     0.1410 H       
  42 H42           -7.6577     6.1461    -2.7958 H       
  43 H43           -8.0192     6.3418    -1.0640 H       
  44 H44           -7.1159     7.6056    -1.9330 H       
  45 H45           -0.5288    10.1310    -2.8907 H       
  46 H46            0.2237     9.7988    -1.3113 H       
  47 H47            1.6445    10.8357    -3.8069 H       
  48 H48            3.2889     9.0083    -3.6267 H       
  49 H49            1.8636     7.9763    -1.1315 H       
  50 H50            2.2635     7.0278    -2.5846 H       
  51 H51            4.2273     8.5903    -0.7517 H       
  52 H52            4.6941     7.5945    -2.1512 H       
  53 H53            5.1956     9.3002    -2.0657 H       
  54 H54            1.0576    12.1178    -1.0990 H       
  55 H55            1.9889    12.8629    -2.4204 H       
  56 H56            0.2546    12.5243    -2.6347 H       
@<TRIPOS>BOND
   1    1    2 1
   2    1    4 1
   3    1    5 1
   4    1   29 1
   5    2    3 1
   6    2   30 1
   7    2   31 1
   8    3    4 1
   9    3   32 1
  10    3   33 1
  11    4   34 1
  12    4   35 1
  13    5    6 2
  14    5    7 am
  15    7    8 1
  16    7   36 1
  17    8   12 1
  18    8   37 1
  19    8   38 1
  20    9   10 1
  21    9   13 1
  22   10   11 2
  23   10   21 1
  24   11   12 1
  25   12   13 2
  26   13   16 1
  27   14   15 ar
  28   14   19 ar
  29   14   20 1
  30   15   16 ar
  31   15   39 1
  32   16   17 ar
  33   17   18 ar
  34   17   40 1
  35   18   19 ar
  36   18   41 1
  37   20   42 1
  38   20   43 1
  39   20   44 1
  40   21   22 1
  41   21   26 1
  42   22   23 1
  43   22   45 1
  44   22   46 1
  45   23   24 1
  46   23   28 1
  47   23   47 1
  48   24   25 1
  49   25   26 1
  50   25   27 1
  51   25   48 1
  52   26   49 1
  53   26   50 1
  54   27   51 1
  55   27   52 1
  56   27   53 1
  57   28   54 1
  58   28   55 1
  59   28   56 1

#	End of record

