#	Name: ASD01915881
#	Creating user name:	WinNT
#	Creation time:	15. 06. 2019 20:06

#	Modifying user name:	WinNT
#	Modification time:	15. 06. 2019 20:06

#	Program:	/corina/corina34_cracker 3.40 0067  02.08.2006

@<TRIPOS>MOLECULE
ASD01915881
  31   33    0    0    0
SMALL
NO_CHARGES


@<TRIPOS>ATOM
   1 C1            -0.0168     1.3844     0.0097 C.2     
   2 C2             0.0021    -0.0041     0.0020 C.2     
   3 C3            -1.2981    -0.7973     0.0053 C.3     
   4 C4            -2.3789     0.0611    -0.6584 C.3     
   5 C5            -2.5216     1.3970     0.0712 C.3     
   6 C6            -1.2079     2.1451     0.0304 C.2     
   7 O7            -1.1774     3.3593     0.0138 O.2     
   8 S8             1.6371     1.9697    -0.0030 S.3     
   9 C9             2.2220     0.3081    -0.0145 C.2     
  10 N10            1.2027    -0.5139    -0.0094 N.2     
  11 C11            3.6302    -0.0919    -0.0281 C.2     
  12 C12            4.5976     0.8468    -0.0322 C.2     
  13 C13            6.0136     0.4445    -0.0459 C.ar    
  14 C14            7.0200     1.4153    -0.0502 C.ar    
  15 C15            6.3592    -0.9104    -0.0488 C.ar    
  16 C16            7.6878    -1.2793    -0.0611 C.ar    
  17 C17            8.6781    -0.3125    -0.0702 C.ar    
  18 C18            8.3441     1.0306    -0.0625 C.ar    
  19 H19           -1.1665    -1.7225    -0.5557 H       
  20 H20           -1.5875    -1.0258     1.0311 H       
  21 H21           -2.1055     0.2452    -1.6974 H       
  22 H22           -3.3303    -0.4699    -0.6277 H       
  23 H23           -3.2945     1.9938    -0.4132 H       
  24 H24           -2.8019     1.2153     1.1087 H       
  25 H25            3.8940    -1.1392    -0.0348 H       
  26 H26            4.3338     1.8941    -0.0254 H       
  27 H27            6.7609     2.4638    -0.0442 H       
  28 H28            5.5876    -1.6660    -0.0410 H       
  29 H29            7.9563    -2.3254    -0.0634 H       
  30 H30            9.7169    -0.6077    -0.0791 H       
  31 H31            9.1225     1.7792    -0.0697 H       
@<TRIPOS>BOND
   1    1    2 2
   2    1    8 1
   3    1    6 1
   4    2    3 1
   5    2   10 1
   6    3    4 1
   7    3   19 1
   8    3   20 1
   9    4    5 1
  10    4   21 1
  11    4   22 1
  12    5    6 1
  13    5   23 1
  14    5   24 1
  15    6    7 2
  16    8    9 1
  17    9   10 2
  18    9   11 1
  19   11   12 2
  20   11   25 1
  21   12   13 1
  22   12   26 1
  23   13   14 ar
  24   13   15 ar
  25   14   18 ar
  26   14   27 1
  27   15   16 ar
  28   15   28 1
  29   16   17 ar
  30   16   29 1
  31   17   18 ar
  32   17   30 1
  33   18   31 1

#	End of record

