#	Name: ASD01410728
#	Creating user name:	WinNT
#	Creation time:	15. 06. 2019 19:18

#	Modifying user name:	WinNT
#	Modification time:	15. 06. 2019 19:18

#	Program:	/corina/corina34_cracker 3.40 0067  02.08.2006

@<TRIPOS>MOLECULE
ASD01410728
 114  121    0    0    0
SMALL
NO_CHARGES


@<TRIPOS>ATOM
   1 N1             2.1323     2.1997    -2.2373 N.3     
   2 C2             1.9450    -1.5074    -1.5190 C.3     
   3 C3             1.6565    -0.2020    -2.2935 C.3     
   4 N4             2.6441    -0.2275    -3.3886 N.am    
   5 C5             2.7272    -1.6227    -3.8407 C.3     
   6 C6             2.3010    -2.5041    -2.6489 C.3     
   7 O7             3.0500    -1.3347    -0.6295 O.3     
   8 C8             1.7952    -1.8437    -5.0042 C.2     
   9 O9             1.1206    -0.9271    -5.4233 O.2     
  10 N10            1.7113    -3.0599    -5.5789 N.am    
  11 C11            1.9088     1.0111    -1.4071 C.3     
  12 C12            3.3671     2.0979    -3.0230 C.3     
  13 C13            3.3514     0.8233    -3.8316 C.2     
  14 O14            3.9721     0.7496    -4.8710 O.2     
  15 C15            3.4707     3.2980    -3.9663 C.3     
  16 C16            2.2756     3.3006    -4.9216 C.3     
  17 C17            0.7420    -3.2980    -6.6512 C.3     
  18 C18           -0.7075    -3.2158    -6.2472 C.2     
  19 N19           -1.0381    -3.0776    -4.9479 N.am    
  20 O20           -1.5765    -3.2739    -7.0912 O.2     
  21 S21           -2.6288    -3.1197    -4.4893 S.o2    
  22 C22           -3.1678    -4.8074    -4.8792 C.3     
  23 C23            1.1118    -2.8201    -8.0568 C.3     
  24 C24            1.1180    -4.3155    -7.7302 C.3     
  25 C25           -4.6199    -5.1749    -4.5677 C.3     
  26 C26           -4.1739    -4.9822    -6.0185 C.3     
  27 O27           -2.5934    -2.9199    -3.0829 O.2     
  28 O28           -3.2656    -2.1823    -5.3466 O.2     
  29 C29           -0.0014    -2.3035    -8.9315 C.2     
  30 C30            0.0354    -1.0734    -9.3804 C.2     
  31 C31            3.1288    -2.1824     0.4262 C.ar    
  32 C32            4.1687    -2.0624     1.3775 C.ar    
  33 C33            2.2001    -3.1742     0.6026 C.ar    
  34 C34            2.3039    -4.0375     1.7019 C.ar    
  35 N35            3.2829    -3.9201     2.5830 N.ar    
  36 C36            4.2146    -2.9686     2.4657 C.ar    
  37 C37            1.2956    -5.1031     1.8808 C.2     
  38 C38            5.2509    -2.8544     3.4087 C.ar    
  39 C39            6.1973    -1.8648     3.2626 C.ar    
  40 C40            6.1384    -0.9731     2.1878 C.ar    
  41 C41            5.1481    -1.0658     1.2585 C.ar    
  42 Cl42           5.3367    -3.9537     4.7495 Cl      
  43 O43            7.1992    -1.7536     4.1736 O.3     
  44 C44            8.1502    -0.7071     3.9676 C.3     
  45 C45            3.4726     4.5910    -3.1483 C.3     
  46 N46            1.2752    -5.9686     2.8539 N.2     
  47 C47            9.1943    -0.7395     5.0855 C.3     
  48 N48            9.9648    -1.9872     4.9999 N.3     
  49 C49           11.1260    -1.9522     5.9009 C.3     
  50 C50           11.8648    -3.2910     5.8247 C.3     
  51 O51           12.2394    -3.5465     4.4683 O.3     
  52 C52           11.1327    -3.5880     3.5634 C.3     
  53 C53           10.3865    -2.2523     3.6167 C.3     
  54 C54            0.3011    -6.8462     2.8522 C.2     
  55 C55           -0.5694    -6.7499     1.8390 C.2     
  56 S56           -0.0759    -5.4019     0.8161 S.3     
  57 C57            0.1695    -7.8981     3.9233 C.3     
  58 C58           -0.7873    -7.4029     5.0096 C.3     
  59 C59           -0.3804    -9.1865     3.3080 C.3     
  60 C60           -2.1088    -5.8967    -4.6978 C.3     
  61 H61            1.3382     2.3790    -2.8334 H       
  62 H62            1.0603    -1.8369    -0.9742 H       
  63 H63            0.6398    -0.1999    -2.6865 H       
  64 H64            3.7504    -1.8596    -4.1323 H       
  65 H65            3.1248    -3.1478    -2.3403 H       
  66 H66            1.4299    -3.1034    -2.9136 H       
  67 H67            2.2928    -3.7775    -5.2825 H       
  68 H68            2.7882     0.8309    -0.7888 H       
  69 H69            1.0440     1.1760    -0.7644 H       
  70 H70            4.2251     2.0904    -2.3509 H       
  71 H71            4.3947     3.2300    -4.5406 H       
  72 H72            1.3516     3.3686    -4.3473 H       
  73 H73            2.3495     4.1556    -5.5936 H       
  74 H74            2.2742     2.3795    -5.5043 H       
  75 H75           -0.3444    -2.9535    -4.2815 H       
  76 H76            2.0763    -2.3284    -8.1837 H       
  77 H77            2.0866    -4.8075    -7.6425 H       
  78 H78            0.3169    -4.9253    -8.1481 H       
  79 H79           -4.8210    -6.1929    -4.2340 H       
  80 H80           -5.2515    -4.4026    -4.1286 H       
  81 H81           -4.5119    -4.0832    -6.5338 H       
  82 H82           -4.0814    -5.8734    -6.6392 H       
  83 H83           -0.8295    -2.9475    -9.1882 H       
  84 H84           -0.7624    -0.7032   -10.0072 H       
  85 H85            0.8635    -0.4294    -9.1236 H       
  86 H86            1.3906    -3.2902    -0.1028 H       
  87 H87            6.8901    -0.2036     2.0913 H       
  88 H88            5.1146    -0.3705     0.4328 H       
  89 H89            8.6432    -0.8484     3.0058 H       
  90 H90            7.6388     0.2554     3.9758 H       
  91 H91            2.5128     4.7033    -2.6441 H       
  92 H92            4.2702     4.5504    -2.4064 H       
  93 H93            3.6363     5.4403    -3.8116 H       
  94 H94            9.8674     0.1112     4.9788 H       
  95 H95            8.6933    -0.6874     6.0521 H       
  96 H96           11.7972    -1.1484     5.5984 H       
  97 H97           10.7886    -1.7803     6.9230 H       
  98 H98           12.7584    -3.2495     6.4474 H       
  99 H99           11.2109    -4.0882     6.1780 H       
 100 H100          11.4968    -3.7614     2.5508 H       
 101 H101          10.4574    -4.3939     3.8510 H       
 102 H102           9.5093    -2.2994     2.9715 H       
 103 H103          11.0459    -1.4532     3.2778 H       
 104 H104          -1.4278    -7.3853     1.6789 H       
 105 H105           1.1477    -8.0939     4.3624 H       
 106 H106          -1.7656    -7.2071     4.5705 H       
 107 H107          -0.8825    -8.1637     5.7843 H       
 108 H108          -0.3956    -6.4850     5.4480 H       
 109 H109          -1.3586    -8.9907     2.8688 H       
 110 H110           0.3013    -9.5393     2.5341 H       
 111 H111          -0.4756    -9.9473     4.0827 H       
 112 H112          -2.1042    -6.2297    -3.6599 H       
 113 H113          -2.3398    -6.7399    -5.3488 H       
 114 H114          -1.1282    -5.4967    -4.9555 H       
@<TRIPOS>BOND
   1    1   11 1
   2    1   12 1
   3    1   61 1
   4    2    3 1
   5    2    7 1
   6    2    6 1
   7    2   62 1
   8    3    4 1
   9    3   11 1
  10    3   63 1
  11    4    5 1
  12    4   13 am
  13    5    6 1
  14    5    8 1
  15    5   64 1
  16    6   65 1
  17    6   66 1
  18    7   31 1
  19    8    9 2
  20    8   10 am
  21   10   17 1
  22   10   67 1
  23   11   68 1
  24   11   69 1
  25   12   13 1
  26   12   15 1
  27   12   70 1
  28   13   14 2
  29   15   16 1
  30   15   45 1
  31   15   71 1
  32   16   72 1
  33   16   73 1
  34   16   74 1
  35   17   18 1
  36   17   23 1
  37   17   24 1
  38   18   19 am
  39   18   20 2
  40   19   21 am
  41   19   75 1
  42   21   22 1
  43   21   27 2
  44   21   28 2
  45   22   25 1
  46   22   60 1
  47   22   26 1
  48   23   24 1
  49   23   29 1
  50   23   76 1
  51   24   77 1
  52   24   78 1
  53   25   26 1
  54   25   79 1
  55   25   80 1
  56   26   81 1
  57   26   82 1
  58   29   30 2
  59   29   83 1
  60   30   84 1
  61   30   85 1
  62   31   32 ar
  63   31   33 ar
  64   32   36 ar
  65   32   41 ar
  66   33   34 ar
  67   33   86 1
  68   34   35 ar
  69   34   37 1
  70   35   36 ar
  71   36   38 ar
  72   37   46 2
  73   37   56 1
  74   38   39 ar
  75   38   42 1
  76   39   40 ar
  77   39   43 1
  78   40   41 ar
  79   40   87 1
  80   41   88 1
  81   43   44 1
  82   44   47 1
  83   44   89 1
  84   44   90 1
  85   45   91 1
  86   45   92 1
  87   45   93 1
  88   46   54 1
  89   47   48 1
  90   47   94 1
  91   47   95 1
  92   48   49 1
  93   48   53 1
  94   49   50 1
  95   49   96 1
  96   49   97 1
  97   50   51 1
  98   50   98 1
  99   50   99 1
 100   51   52 1
 101   52   53 1
 102   52  100 1
 103   52  101 1
 104   53  102 1
 105   53  103 1
 106   54   55 2
 107   54   57 1
 108   55   56 1
 109   55  104 1
 110   57   58 1
 111   57   59 1
 112   57  105 1
 113   58  106 1
 114   58  107 1
 115   58  108 1
 116   59  109 1
 117   59  110 1
 118   59  111 1
 119   60  112 1
 120   60  113 1
 121   60  114 1

#	End of record

