#	Name: ASD03930055
#	Creating user name:	WinNT
#	Creation time:	15. 06. 2019 20:47

#	Modifying user name:	WinNT
#	Modification time:	15. 06. 2019 20:47

#	Program:	/corina/corina34_cracker 3.40 0067  02.08.2006

@<TRIPOS>MOLECULE
ASD03930055
  26   28    0    0    0
SMALL
NO_CHARGES


@<TRIPOS>ATOM
   1 C1            -0.0166     1.3720     0.0096 C.ar    
   2 C2             0.0021    -0.0041     0.0020 C.ar    
   3 C3            -1.1770    -0.7417    -0.0022 C.ar    
   4 C4            -2.3957    -0.1026     0.0023 C.ar    
   5 C5            -2.4141     1.3086     0.0336 C.ar    
   6 C6            -1.2420     2.0475     0.0307 C.ar    
   7 C7            -3.6796    -0.8803    -0.0564 C.3     
   8 N8            -4.7893    -0.2079     0.6250 N.am    
   9 S9            -5.2022     1.3442     0.1570 S.o2    
  10 C10           -3.6162     2.1554     0.0974 C.2     
  11 S11           -1.6328     3.7616     0.0439 S.3     
  12 C12           -3.3579     3.4415     0.0977 C.2     
  13 O13           -5.6834     1.2656    -1.1777 O.2     
  14 O14           -5.9306     1.9257     1.2297 O.2     
  15 C15           -5.5239    -0.8831     1.6977 C.3     
  16 F16           -1.1257    -2.0917    -0.0111 F       
  17 N17            1.2528     2.1334     0.0016 N.pl3   
  18 O18            2.3175     1.5421    -0.0118 O.2     
  19 O19            1.2325     3.3512     0.0083 O.2     
  20 H20            0.9503    -0.5210    -0.0011 H       
  21 H21           -3.9501    -1.0323    -1.1013 H       
  22 H22           -3.5214    -1.8539     0.4076 H       
  23 H23           -4.1153     4.2108     0.1295 H       
  24 H24           -5.0494    -0.6670     2.6549 H       
  25 H25           -6.5535    -0.5257     1.7137 H       
  26 H26           -5.5154    -1.9589     1.5225 H       
@<TRIPOS>BOND
   1    1    2 ar
   2    1   17 1
   3    1    6 ar
   4    2    3 ar
   5    2   20 1
   6    3    4 ar
   7    3   16 1
   8    4    5 ar
   9    4    7 1
  10    5    6 ar
  11    5   10 1
  12    6   11 1
  13    7    8 1
  14    7   21 1
  15    7   22 1
  16    8    9 am
  17    8   15 1
  18    9   10 1
  19    9   13 2
  20    9   14 2
  21   10   12 2
  22   11   12 1
  23   12   23 1
  24   15   24 1
  25   15   25 1
  26   15   26 1
  27   17   18 2
  28   17   19 2

#	End of record

