#	Name: ASD01310012
#	Creating user name:	WinNT
#	Creation time:	15. 06. 2019 19:15

#	Modifying user name:	WinNT
#	Modification time:	15. 06. 2019 19:15

#	Program:	/corina/corina34_cracker 3.40 0067  02.08.2006

@<TRIPOS>MOLECULE
ASD01310012
  38   41    0    0    0
SMALL
NO_CHARGES


@<TRIPOS>ATOM
   1 N1            -0.0181     1.4829     0.0102 N.3     
   2 C2             0.0021    -0.0041     0.0020 C.3     
   3 C3             0.4351    -0.4460    -1.4050 C.3     
   4 C4             1.8680     0.0326    -1.6560 C.3     
   5 C5             1.9598     1.5411    -1.4089 C.3     
   6 C6             1.4234     1.8484    -0.0016 C.3     
   7 C7             2.0765     0.8501     0.9818 C.3     
   8 C8             1.1373    -0.3740     0.9842 C.3     
   9 O9             2.7731    -0.6601    -0.7564 O.3     
  10 C10            4.0318    -0.8665    -1.1937 C.2     
  11 O11            4.3635    -0.4779    -2.2972 O.2     
  12 C12            5.0014    -1.5601    -0.3381 C.2     
  13 C13            4.7799    -2.0518     0.9156 C.2     
  14 N14            5.9114    -2.6255     1.3888 N.pl3   
  15 C15            6.9253    -2.5317     0.4577 C.ar    
  16 C16            6.4057    -1.8691    -0.6655 C.ar    
  17 C17            8.2517    -2.9514     0.4489 C.ar    
  18 C18            9.0420    -2.7094    -0.6532 C.ar    
  19 C19            8.5287    -2.0484    -1.7599 C.ar    
  20 C20            7.2154    -1.6323    -1.7735 C.ar    
  21 H21           -0.4890     1.8427    -0.8064 H       
  22 H22           -0.9588    -0.4312     0.2889 H       
  23 H23            0.3960    -1.5331    -1.4744 H       
  24 H24           -0.2317    -0.0069    -2.1470 H       
  25 H25            2.1471    -0.1835    -2.6872 H       
  26 H26            2.9995     1.8603    -1.4811 H       
  27 H27            1.3615     2.0697    -2.1511 H       
  28 H28            1.5877     2.8878     0.2825 H       
  29 H29            3.0687     0.5662     0.6310 H       
  30 H30            2.1360     1.2845     1.9797 H       
  31 H31            0.7349    -0.5414     1.9833 H       
  32 H32            1.6677    -1.2598     0.6346 H       
  33 H33            3.8433    -1.9920     1.4499 H       
  34 H34            5.9972    -3.0437     2.2598 H       
  35 H35            8.6614    -3.4662     1.3054 H       
  36 H36           10.0711    -3.0370    -0.6557 H       
  37 H37            9.1596    -1.8649    -2.6170 H       
  38 H38            6.8181    -1.1179    -2.6361 H       
@<TRIPOS>BOND
   1    1    2 1
   2    1    6 1
   3    1   21 1
   4    2    3 1
   5    2    8 1
   6    2   22 1
   7    3    4 1
   8    3   23 1
   9    3   24 1
  10    4    5 1
  11    4    9 1
  12    4   25 1
  13    5    6 1
  14    5   26 1
  15    5   27 1
  16    6    7 1
  17    6   28 1
  18    7    8 1
  19    7   29 1
  20    7   30 1
  21    8   31 1
  22    8   32 1
  23    9   10 1
  24   10   11 2
  25   10   12 1
  26   12   13 2
  27   12   16 1
  28   13   14 1
  29   13   33 1
  30   14   15 1
  31   14   34 1
  32   15   16 ar
  33   15   17 ar
  34   16   20 ar
  35   17   18 ar
  36   17   35 1
  37   18   19 ar
  38   18   36 1
  39   19   20 ar
  40   19   37 1
  41   20   38 1

#	End of record

