#	Name: ASD01910844
#	Creating user name:	WinNT
#	Creation time:	15. 06. 2019 19:56

#	Modifying user name:	WinNT
#	Modification time:	15. 06. 2019 19:56

#	Program:	/corina/corina34_cracker 3.40 0067  02.08.2006

@<TRIPOS>MOLECULE
ASD01910844
  52   55    0    0    0
SMALL
NO_CHARGES


@<TRIPOS>ATOM
   1 C1            12.4988    -1.8858     4.2580 C.ar    
   2 C2            13.1159    -2.0485     3.0250 C.ar    
   3 C3            12.4024    -1.7319     1.8828 C.ar    
   4 C4            11.0985    -1.2639     2.0076 C.ar    
   5 N5            10.5450    -1.1219     3.2022 N.ar    
   6 C6            11.2014    -1.4164     4.3083 C.ar    
   7 N7            10.3702    -0.9420     0.8683 N.3     
   8 C8             9.0242    -0.4701     1.2198 C.3     
   9 C9             8.3210     0.0432    -0.0412 C.3     
  10 N10            8.3622    -1.0144    -1.0625 N.am    
  11 C11            9.6601    -1.6336    -1.3711 C.3     
  12 C12           10.3106    -2.0809    -0.0577 C.3     
  13 C13            7.2404    -1.4055    -1.6989 C.2     
  14 C14            7.3212    -2.3799    -2.8080 C.ar    
  15 O15            6.1622    -0.9572    -1.3611 O.2     
  16 C16            6.3499    -3.3732    -2.9403 C.ar    
  17 C17            6.4312    -4.2795    -3.9775 C.ar    
  18 C18            7.4725    -4.2049    -4.8852 C.ar    
  19 C19            8.4391    -3.2226    -4.7595 C.ar    
  20 C20            8.3661    -2.3067    -3.7307 C.ar    
  21 C21            9.5702    -3.1493    -5.7526 C.3     
  22 O22            9.1936    -2.3045    -6.8419 O.3     
  23 C23           10.1078    -2.1303    -7.8323 C.ar    
  24 C24            9.8075    -1.3243    -8.9171 C.ar    
  25 C25           10.7493    -1.1482    -9.9320 C.ar    
  26 C26           11.9882    -1.7865    -9.8459 C.ar    
  27 C27           12.2767    -2.5876    -8.7600 C.ar    
  28 C28           11.3447    -2.7563    -7.7529 C.ar    
  29 C29           10.4461    -0.3165   -11.0576 C.1     
  30 N30           10.2055     0.3433   -11.9505 N.1     
  31 H31           13.0269    -2.1281     5.1684 H       
  32 H32           14.1301    -2.4137     2.9590 H       
  33 H33           12.8519    -1.8462     0.9074 H       
  34 H34           10.7177    -1.2880     5.2653 H       
  35 H35            8.4504    -1.2925     1.6470 H       
  36 H36            9.1005     0.3374     1.9479 H       
  37 H37            7.2844     0.2875     0.1913 H       
  38 H38            8.8349     0.9302    -0.4117 H       
  39 H39            9.5089    -2.4979    -2.0178 H       
  40 H40           10.3027    -0.9078    -1.8694 H       
  41 H41           11.3199    -2.4416    -0.2560 H       
  42 H42            9.7189    -2.8809     0.3873 H       
  43 H43            5.5367    -3.4328    -2.2321 H       
  44 H44            5.6805    -5.0490    -4.0808 H       
  45 H45            7.5316    -4.9167    -5.6953 H       
  46 H46            9.1211    -1.5405    -3.6336 H       
  47 H47           10.4556    -2.7409    -5.2654 H       
  48 H48            9.7901    -4.1489    -6.1273 H       
  49 H49            8.8473    -0.8336    -8.9781 H       
  50 H50           12.7201    -1.6536   -10.6289 H       
  51 H51           13.2351    -3.0811    -8.6946 H       
  52 H52           11.5764    -3.3843    -6.9052 H       
@<TRIPOS>BOND
   1    1    2 ar
   2    1    6 ar
   3    1   31 1
   4    2    3 ar
   5    2   32 1
   6    3    4 ar
   7    3   33 1
   8    4    5 ar
   9    4    7 1
  10    5    6 ar
  11    6   34 1
  12    7    8 1
  13    7   12 1
  14    8    9 1
  15    8   35 1
  16    8   36 1
  17    9   10 1
  18    9   37 1
  19    9   38 1
  20   10   11 1
  21   10   13 am
  22   11   12 1
  23   11   39 1
  24   11   40 1
  25   12   41 1
  26   12   42 1
  27   13   14 1
  28   13   15 2
  29   14   16 ar
  30   14   20 ar
  31   16   17 ar
  32   16   43 1
  33   17   18 ar
  34   17   44 1
  35   18   19 ar
  36   18   45 1
  37   19   20 ar
  38   19   21 1
  39   20   46 1
  40   21   22 1
  41   21   47 1
  42   21   48 1
  43   22   23 1
  44   23   24 ar
  45   23   28 ar
  46   24   25 ar
  47   24   49 1
  48   25   26 ar
  49   25   29 1
  50   26   27 ar
  51   26   50 1
  52   27   28 ar
  53   27   51 1
  54   28   52 1
  55   29   30 3

#	End of record

