#	Name: ASD01200123
#	Creating user name:	WinNT
#	Creation time:	15. 06. 2019 19:08

#	Modifying user name:	WinNT
#	Modification time:	15. 06. 2019 19:08

#	Program:	/corina/corina34_cracker 3.40 0067  02.08.2006

@<TRIPOS>MOLECULE
ASD01200123
  37   39    0    0    0
SMALL
NO_CHARGES


@<TRIPOS>ATOM
   1 C1             0.6578     2.2000    -0.1043 C.ar    
   2 C2             0.3908     0.8435    -0.1551 C.ar    
   3 C3             1.4302    -0.0720    -0.1404 C.ar    
   4 C4             2.7317     0.3677    -0.0752 C.ar    
   5 C5             3.0127     1.7353    -0.0235 C.ar    
   6 C6             1.9599     2.6517    -0.0386 C.ar    
   7 C7             4.0619    -0.3425    -0.0428 C.3     
   8 N8             5.0857     0.7061     0.0293 N.am    
   9 C9             4.4770     1.9046     0.0403 C.2     
  10 O10            5.0508     2.9747     0.0953 O.2     
  11 O11            4.1406    -1.1855     1.1084 O.3     
  12 C12            6.5328     0.4837     0.0808 C.3     
  13 C13            7.0649     0.3131    -1.3188 C.ar    
  14 C14            7.4931     1.4154    -2.0346 C.ar    
  15 C15            7.9812     1.2589    -3.3184 C.ar    
  16 C16            8.0415     0.0000    -3.8862 C.ar    
  17 C17            7.6142    -1.1024    -3.1701 C.ar    
  18 C18            7.1301    -0.9465    -1.8847 C.ar    
  19 C19            3.9257    -0.5023     2.3449 C.3     
  20 C20            4.1542    -1.4538     3.4909 C.2     
  21 O21            4.4687    -2.5996     3.2713 O.2     
  22 O22            4.0083    -1.0286     4.7557 O.3     
  23 H23           -0.1568     2.9090    -0.1206 H       
  24 H24           -0.6310     0.4974    -0.2059 H       
  25 H25            1.2187    -1.1303    -0.1798 H       
  26 H26            2.1641     3.7115     0.0005 H       
  27 H27            4.1935    -0.9328    -0.9496 H       
  28 H28            7.0156     1.3403     0.5512 H       
  29 H29            6.7418    -0.4151     0.6610 H       
  30 H30            7.4460     2.3989    -1.5909 H       
  31 H31            8.3151     2.1202    -3.8779 H       
  32 H32            8.4222    -0.1221    -4.8895 H       
  33 H33            7.6610    -2.0859    -3.6139 H       
  34 H34            6.7963    -1.8078    -1.3252 H       
  35 H35            4.6202     0.3342     2.4233 H       
  36 H36            2.9022    -0.1293     2.3809 H       
  37 H37            4.1655    -1.6753     5.4572 H       
@<TRIPOS>BOND
   1    1    2 ar
   2    1    6 ar
   3    1   23 1
   4    2    3 ar
   5    2   24 1
   6    3    4 ar
   7    3   25 1
   8    4    5 ar
   9    4    7 1
  10    5    6 ar
  11    5    9 1
  12    6   26 1
  13    7    8 1
  14    7   11 1
  15    7   27 1
  16    8    9 am
  17    8   12 1
  18    9   10 2
  19   11   19 1
  20   12   13 1
  21   12   28 1
  22   12   29 1
  23   13   14 ar
  24   13   18 ar
  25   14   15 ar
  26   14   30 1
  27   15   16 ar
  28   15   31 1
  29   16   17 ar
  30   16   32 1
  31   17   18 ar
  32   17   33 1
  33   18   34 1
  34   19   20 1
  35   19   35 1
  36   19   36 1
  37   20   21 2
  38   20   22 1
  39   22   37 1

#	End of record

