#	Name: ASD03090530
#	Creating user name:	WinNT
#	Creation time:	15. 06. 2019 20:29

#	Modifying user name:	WinNT
#	Modification time:	15. 06. 2019 20:29

#	Program:	/corina/corina34_cracker 3.40 0067  02.08.2006

@<TRIPOS>MOLECULE
ASD03090530
  38   41    0    0    0
SMALL
NO_CHARGES


@<TRIPOS>ATOM
   1 C1            -0.0181     1.5035     0.0018 C.2     
   2 C2             0.0032    -0.0034    -0.0070 C.3     
   3 O3             1.0234     2.1247    -0.0120 O.2     
   4 N4            -1.1946     2.1607     0.0195 N.am    
   5 N5             5.3364    -1.8072     0.1675 N.pl3   
   6 C6             5.5187    -1.8686     1.5222 C.2     
   7 C7             4.3963    -1.4882     2.1527 C.2     
   8 C8             3.4150    -1.1560     1.1171 C.ar    
   9 C9             2.0924    -0.7089     1.1408 C.ar    
  10 C10            1.4308    -0.4855    -0.0334 C.ar    
  11 C11            2.0629    -0.6994    -1.2508 C.ar    
  12 C12            3.3669    -1.1407    -1.2974 C.ar    
  13 C13            4.0598    -1.3748    -0.1138 C.ar    
  14 C14           -1.2152     3.5504     0.1324 C.ar    
  15 C15           -2.4214     4.2426     0.0377 C.ar    
  16 C16           -2.3883     5.6233     0.1571 C.ar    
  17 C17           -1.1577     6.2307     0.3634 C.ar    
  18 N18           -0.0651     5.4970     0.4402 N.ar    
  19 N19           -0.0897     4.2181     0.3355 N.ar    
  20 C20           -1.0703     7.7291     0.4990 C.3     
  21 C21           -0.9773     8.5507    -0.7883 C.3     
  22 C22           -2.2711     8.5522     0.0284 C.3     
  23 H23           -0.4906    -0.3790     0.8892 H       
  24 H24           -0.5202    -0.3689    -0.8905 H       
  25 H25           -2.0270     1.6670    -0.0464 H       
  26 H26            6.0078    -2.0309    -0.4958 H       
  27 H27            6.4304    -2.1777     2.0117 H       
  28 H28            4.2453    -1.4368     3.2209 H       
  29 H29            1.5939    -0.5412     2.0841 H       
  30 H30            1.5267    -0.5183    -2.1707 H       
  31 H31            3.8498    -1.3045    -2.2494 H       
  32 H32           -3.3524     3.7198    -0.1240 H       
  33 H33           -3.2933     6.2089     0.0913 H       
  34 H34           -0.5209     8.0912     1.3680 H       
  35 H35           -0.3671     9.4536    -0.7662 H       
  36 H36           -0.9794     8.0075    -1.7333 H       
  37 H37           -3.1243     8.0100    -0.3793 H       
  38 H38           -2.5120     9.4561     0.5879 H       
@<TRIPOS>BOND
   1    1    2 1
   2    1    3 2
   3    1    4 am
   4    2   10 1
   5    2   23 1
   6    2   24 1
   7    4   14 1
   8    4   25 1
   9    5    6 1
  10    5   13 1
  11    5   26 1
  12    6    7 2
  13    6   27 1
  14    7    8 1
  15    7   28 1
  16    8    9 ar
  17    8   13 ar
  18    9   10 ar
  19    9   29 1
  20   10   11 ar
  21   11   12 ar
  22   11   30 1
  23   12   13 ar
  24   12   31 1
  25   14   15 ar
  26   14   19 ar
  27   15   16 ar
  28   15   32 1
  29   16   17 ar
  30   16   33 1
  31   17   18 ar
  32   17   20 1
  33   18   19 ar
  34   20   21 1
  35   20   22 1
  36   20   34 1
  37   21   22 1
  38   21   35 1
  39   21   36 1
  40   22   37 1
  41   22   38 1

#	End of record

