#	Name: ASD03330786
#	Creating user name:	WinNT
#	Creation time:	15. 06. 2019 20:37

#	Modifying user name:	WinNT
#	Modification time:	15. 06. 2019 20:37

#	Program:	/corina/corina34_cracker 3.40 0067  02.08.2006

@<TRIPOS>MOLECULE
ASD03330786
  57   59    0    0    0
SMALL
NO_CHARGES


@<TRIPOS>ATOM
   1 C1            -0.4449     2.0029    -0.2352 C.2     
   2 N2            -0.6522     0.6596    -0.2662 N.pl3   
   3 C3             0.8649     2.1986     0.0824 C.2     
   4 N4             1.4407     0.9846     0.2231 N.2     
   5 C5             0.5391     0.0550     0.0101 C.2     
   6 C6             0.7752    -1.4044     0.0606 C.ar    
   7 C7             1.5342     3.5014     0.2436 C.2     
   8 O8             0.9056     4.5312     0.0902 O.2     
   9 C9             3.5086     4.8471     0.7214 C.3     
  10 N10            2.8431     3.5519     0.5611 N.am    
  11 C11            5.0071     4.6867     0.4579 C.3     
  12 C12            3.2966     5.3503     2.1261 C.2     
  13 O13            3.0643     4.5669     3.0223 O.2     
  14 C14           -1.9348     0.0037    -0.5353 C.3     
  15 C15           -2.5807     0.6489    -1.7654 C.3     
  16 C16           -3.4150     1.8522    -1.3384 C.3     
  17 N17           -2.8115     2.5312    -0.1900 N.3     
  18 C18           -1.4799     3.0599    -0.5210 C.3     
  19 C19            2.0220    -1.9243    -0.2896 C.ar    
  20 C20           -0.2460    -2.2650     0.4640 C.ar    
  21 C21           -0.0213    -3.6254     0.5095 C.ar    
  22 C22            2.2369    -3.2866    -0.2408 C.ar    
  23 C23           -3.6901     3.5952     0.3139 C.3     
  24 N24            3.3653     6.6709     2.3863 N.am    
  25 C25            1.2160    -4.1380     0.1556 C.ar    
  26 F26            1.4308    -5.4710     0.2019 F       
  27 Cl27           3.7869    -3.9357    -0.6766 Cl      
  28 C28            5.2178     4.0513    -0.9179 C.3     
  29 C29            5.6812     6.0597     0.4941 C.3     
  30 C30            5.6209     3.7886     1.5338 C.3     
  31 H31            3.0894     5.5612     0.0126 H       
  32 H32            3.3445     2.7306     0.6835 H       
  33 H33           -1.7689    -1.0568    -0.7249 H       
  34 H34           -2.5924     0.1224     0.3259 H       
  35 H35           -1.8018     0.9742    -2.4551 H       
  36 H36           -3.2222    -0.0792    -2.2618 H       
  37 H37           -3.4856     2.5521    -2.1711 H       
  38 H38           -4.4163     1.5158    -1.0693 H       
  39 H39           -1.2770     3.9423     0.0859 H       
  40 H40           -1.4461     3.3270    -1.5772 H       
  41 H41            2.8170    -1.2619    -0.5986 H       
  42 H42           -1.2111    -1.8668     0.7405 H       
  43 H43           -0.8115    -4.2920     0.8220 H       
  44 H44           -4.6421     3.1640     0.6235 H       
  45 H45           -3.2177     4.0830     1.1666 H       
  46 H46           -3.8623     4.3279    -0.4744 H       
  47 H47            3.4751     7.3035     1.6592 H       
  48 H48            3.3050     6.9888     3.3008 H       
  49 H49            4.7805     4.6911    -1.6844 H       
  50 H50            6.2854     3.9370    -1.1057 H       
  51 H51            4.7375     3.0731    -0.9438 H       
  52 H52            5.6390     6.4585     1.5077 H       
  53 H53            6.7220     5.9617     0.1853 H       
  54 H54            5.1630     6.7369    -0.1847 H       
  55 H55            5.1407     2.8104     1.5079 H       
  56 H56            6.6885     3.6743     1.3460 H       
  57 H57            5.4708     4.2412     2.5139 H       
@<TRIPOS>BOND
   1    1    2 1
   2    1    3 2
   3    1   18 1
   4    2   14 1
   5    2    5 1
   6    3    4 1
   7    3    7 1
   8    4    5 2
   9    5    6 1
  10    6   20 ar
  11    6   19 ar
  12    7    8 2
  13    7   10 am
  14    9   10 1
  15    9   11 1
  16    9   12 1
  17    9   31 1
  18   10   32 1
  19   11   28 1
  20   11   29 1
  21   11   30 1
  22   12   13 2
  23   12   24 am
  24   14   15 1
  25   14   33 1
  26   14   34 1
  27   15   16 1
  28   15   35 1
  29   15   36 1
  30   16   17 1
  31   16   37 1
  32   16   38 1
  33   17   18 1
  34   17   23 1
  35   18   39 1
  36   18   40 1
  37   19   22 ar
  38   19   41 1
  39   20   21 ar
  40   20   42 1
  41   21   25 ar
  42   21   43 1
  43   22   27 1
  44   22   25 ar
  45   23   44 1
  46   23   45 1
  47   23   46 1
  48   24   47 1
  49   24   48 1
  50   25   26 1
  51   28   49 1
  52   28   50 1
  53   28   51 1
  54   29   52 1
  55   29   53 1
  56   29   54 1
  57   30   55 1
  58   30   56 1
  59   30   57 1

#	End of record

