#	Name: ASD01001241
#	Creating user name:	WinNT
#	Creation time:	15. 06. 2019 18:55

#	Modifying user name:	WinNT
#	Modification time:	15. 06. 2019 18:55

#	Program:	/corina/corina34_cracker 3.40 0067  02.08.2006

@<TRIPOS>MOLECULE
ASD01001241
  50   52    0    0    0
SMALL
NO_CHARGES


@<TRIPOS>ATOM
   1 C1            -0.4541     1.4808     1.6806 C.ar    
   2 C2            -0.4439     0.1010     1.7642 C.ar    
   3 C3            -1.4854    -0.6318     1.2263 C.ar    
   4 C4            -2.5372     0.0153     0.6052 C.ar    
   5 C5            -2.5479     1.3951     0.5223 C.ar    
   6 C6            -1.5086     2.1281     1.0641 C.ar    
   7 C7            -3.6721    -0.7836     0.0179 C.3     
   8 C8            -4.9371     0.0343     0.0607 C.ar    
   9 C9            -3.3507    -1.1371    -1.4114 C.ar    
  10 C10           -5.7237     0.1504    -1.0700 C.ar    
  11 C11           -6.8841     0.9007    -1.0307 C.ar    
  12 C12           -7.2580     1.5346     0.1395 C.ar    
  13 C13           -6.4718     1.4177     1.2705 C.ar    
  14 C14           -5.3138     0.6638     1.2324 C.ar    
  15 C15           -3.2309    -0.1389    -2.3601 C.ar    
  16 C16           -2.9361    -0.4631    -3.6712 C.ar    
  17 C17           -2.7606    -1.7856    -4.0334 C.ar    
  18 C18           -2.8795    -2.7838    -3.0844 C.ar    
  19 C19           -3.1700    -2.4592    -1.7725 C.ar    
  20 S20           -3.9024    -2.3042     0.9798 S.3     
  21 C21           -5.4036    -3.0211     0.2566 C.3     
  22 C22           -5.8068    -4.2664     1.0488 C.3     
  23 N23           -4.7194    -5.2527     0.9975 N.3     
  24 C24           -7.0540    -4.8620     0.4480 C.2     
  25 O25           -8.2545    -4.3333     0.7326 O.3     
  26 O26           -6.9732    -5.8154    -0.2898 O.2     
  27 C27            0.6813     2.2796     2.2669 C.3     
  28 F28            1.6730     2.4617     1.2971 F       
  29 F29            0.2058     3.5263     2.6876 F       
  30 F30            1.2190     1.5924     3.3605 F       
  31 H31            0.3778    -0.4045     2.2495 H       
  32 H32           -1.4771    -1.7098     1.2911 H       
  33 H33           -3.3695     1.9006     0.0367 H       
  34 H34           -1.5169     3.2061     0.9994 H       
  35 H35           -5.4316    -0.3447    -1.9843 H       
  36 H36           -7.4983     0.9920    -1.9143 H       
  37 H37           -8.1642     2.1213     0.1700 H       
  38 H38           -6.7638     1.9132     2.1847 H       
  39 H39           -4.6995     0.5725     2.1160 H       
  40 H40           -3.3680     0.8943    -2.0771 H       
  41 H41           -2.8433     0.3167    -4.4125 H       
  42 H42           -2.5310    -2.0390    -5.0578 H       
  43 H43           -2.7427    -3.8170    -3.3675 H       
  44 H44           -3.2629    -3.2390    -1.0311 H       
  45 H45           -6.2105    -2.2893     0.2946 H       
  46 H46           -5.2115    -3.2966    -0.7804 H       
  47 H47           -5.9989    -3.9909     2.0858 H       
  48 H48           -4.9344    -6.0579     1.5663 H       
  49 H49           -4.5222    -5.5244     0.0460 H       
  50 H50           -9.0256    -4.7495     0.3236 H       
@<TRIPOS>BOND
   1    1    2 ar
   2    1   27 1
   3    1    6 ar
   4    2    3 ar
   5    2   31 1
   6    3    4 ar
   7    3   32 1
   8    4    5 ar
   9    4    7 1
  10    5    6 ar
  11    5   33 1
  12    6   34 1
  13    7    8 1
  14    7    9 1
  15    7   20 1
  16    8   10 ar
  17    8   14 ar
  18    9   15 ar
  19    9   19 ar
  20   10   11 ar
  21   10   35 1
  22   11   12 ar
  23   11   36 1
  24   12   13 ar
  25   12   37 1
  26   13   14 ar
  27   13   38 1
  28   14   39 1
  29   15   16 ar
  30   15   40 1
  31   16   17 ar
  32   16   41 1
  33   17   18 ar
  34   17   42 1
  35   18   19 ar
  36   18   43 1
  37   19   44 1
  38   20   21 1
  39   21   22 1
  40   21   45 1
  41   21   46 1
  42   22   23 1
  43   22   24 1
  44   22   47 1
  45   23   48 1
  46   23   49 1
  47   24   25 1
  48   24   26 2
  49   25   50 1
  50   27   28 1
  51   27   29 1
  52   27   30 1

#	End of record

