#	Name: ASD02039424
#	Creating user name:	WinNT
#	Creation time:	15. 06. 2019 20:18

#	Modifying user name:	WinNT
#	Modification time:	15. 06. 2019 20:18

#	Program:	/corina/corina34_cracker 3.40 0067  02.08.2006

@<TRIPOS>MOLECULE
ASD02039424
  48   51    0    0    0
SMALL
NO_CHARGES


@<TRIPOS>ATOM
   1 C1            -0.4151     1.7105     0.3021 C.2     
   2 O2            -0.7752     0.4358     0.4817 O.3     
   3 C3             0.9848     2.2222     0.0797 C.3     
   4 N4             1.6015     2.5345     1.3714 N.am    
   5 C5             2.4618     1.5483     2.0299 C.3     
   6 C6             1.3775     3.7291     1.9538 C.2     
   7 C7             0.5697     4.7471     1.2598 C.2     
   8 C8             0.3577     6.0291     1.6752 C.2     
   9 N9            -0.0944     4.5820     0.0873 N.2     
  10 C10           -0.6957     5.6959    -0.2163 C.2     
  11 N11           -0.4361     6.6160     0.7488 N.pl3   
  12 O12            1.8423     3.9668     3.0523 O.2     
  13 C13           -0.9277     7.9957     0.7817 C.3     
  14 C14            3.8414     2.1006     2.4252 C.3     
  15 C15            3.7031     1.2957     3.7282 C.3     
  16 C16            2.1807     1.3923     3.5338 C.3     
  17 N17           -1.9762     0.3607     0.6335 N.2     
  18 C18           -2.5124     1.5521     0.5702 C.2     
  19 N19           -1.5080     2.4306     0.3501 N.2     
  20 C20           -3.9531     1.8778     0.7071 C.ar    
  21 C21           -4.8811     0.8611     0.9268 C.ar    
  22 C22           -6.2195     1.1669     1.0541 C.ar    
  23 C23           -6.6434     2.4862     0.9633 C.ar    
  24 C24           -5.7212     3.5011     0.7445 C.ar    
  25 C25           -4.3809     3.2019     0.6221 C.ar    
  26 O26           -7.9626     2.7844     1.0882 O.3     
  27 C27           -8.3291     4.1617     0.9843 C.3     
  28 F28           -7.9500     4.6518    -0.2700 F       
  29 F29           -9.7141     4.2884     1.1354 F       
  30 F30           -7.6818     4.8933     1.9859 F       
  31 H31            1.5740     1.4593    -0.4292 H       
  32 H32            0.9494     3.1228    -0.5332 H       
  33 H33            2.5082     0.6012     1.4925 H       
  34 H34            0.7480     6.4878     2.5717 H       
  35 H35           -1.3008     5.8626    -1.0952 H       
  36 H36           -1.8818     8.0290     1.3077 H       
  37 H37           -0.2052     8.6266     1.2995 H       
  38 H38           -1.0618     8.3580    -0.2375 H       
  39 H39            4.6508     1.7548     1.7822 H       
  40 H40            3.8524     3.1799     2.5777 H       
  41 H41            4.0888     0.2788     3.6563 H       
  42 H42            4.0652     1.8256     4.6093 H       
  43 H43            1.7376     2.2778     3.9893 H       
  44 H44            1.6492     0.4746     3.7857 H       
  45 H45           -4.5521    -0.1651     0.9968 H       
  46 H46           -6.9389     0.3796     1.2243 H       
  47 H47           -6.0537     4.5262     0.6743 H       
  48 H48           -3.6640     3.9916     0.4523 H       
@<TRIPOS>BOND
   1    1    2 1
   2    1    3 1
   3    1   19 2
   4    2   17 1
   5    3    4 1
   6    3   31 1
   7    3   32 1
   8    4    5 1
   9    4    6 am
  10    5   14 1
  11    5   16 1
  12    5   33 1
  13    6    7 1
  14    6   12 2
  15    7    8 2
  16    7    9 1
  17    8   11 1
  18    8   34 1
  19    9   10 2
  20   10   11 1
  21   10   35 1
  22   11   13 1
  23   13   36 1
  24   13   37 1
  25   13   38 1
  26   14   15 1
  27   14   39 1
  28   14   40 1
  29   15   16 1
  30   15   41 1
  31   15   42 1
  32   16   43 1
  33   16   44 1
  34   17   18 2
  35   18   19 1
  36   18   20 1
  37   20   21 ar
  38   20   25 ar
  39   21   22 ar
  40   21   45 1
  41   22   23 ar
  42   22   46 1
  43   23   24 ar
  44   23   26 1
  45   24   25 ar
  46   24   47 1
  47   25   48 1
  48   26   27 1
  49   27   28 1
  50   27   29 1
  51   27   30 1

#	End of record

