#	Name: ASD03430029
#	Creating user name:	WinNT
#	Creation time:	15. 06. 2019 20:40

#	Modifying user name:	WinNT
#	Modification time:	15. 06. 2019 20:40

#	Program:	/corina/corina34_cracker 3.40 0067  02.08.2006

@<TRIPOS>MOLECULE
ASD03430029
  56   62    0    0    0
SMALL
NO_CHARGES


@<TRIPOS>ATOM
   1 C1            -0.0167     1.3822     0.0096 C.ar    
   2 C2             0.0021    -0.0041     0.0020 C.ar    
   3 C3             1.2028    -0.6819    -0.0149 C.ar    
   4 C4             2.4086     0.0130    -0.0150 C.ar    
   5 C5             2.3860     1.4040    -0.0120 C.ar    
   6 C6             1.1815     2.0868     0.0020 C.ar    
   7 O7             3.4714    -0.8417    -0.0042 O.3     
   8 C8             1.5513    -2.1457    -0.0479 C.3     
   9 C9             3.0369    -2.1460    -0.4339 C.3     
  10 C10            0.4290    -3.8609     1.0104 C.ar    
  11 C11            1.3155    -2.8188     1.2717 C.ar    
  12 C12            0.7182    -2.9080    -1.0380 C.2     
  13 N13            0.1001    -3.8864    -0.3470 N.am    
  14 O14            0.6207    -2.6865    -2.2265 O.2     
  15 C15            1.7793    -2.5972     2.5487 C.ar    
  16 C16            1.3665    -3.4132     3.5875 C.ar    
  17 C17            0.4875    -4.4512     3.3395 C.ar    
  18 C18            0.0195    -4.6772     2.0614 C.ar    
  19 C19           -0.8103    -4.8633    -0.9496 C.3     
  20 O20           -1.2112     2.0358     0.0189 O.3     
  21 O21            1.1867     3.4485     0.0118 O.3     
  22 C22           -2.2192    -4.3300    -0.9069 C.ar    
  23 C23           -2.7019    -3.5744    -1.9606 C.ar    
  24 C24           -3.9906    -3.0832    -1.9278 C.ar    
  25 C25           -4.8080    -3.3501    -0.8283 C.ar    
  26 C26           -4.3149    -4.1130     0.2314 C.ar    
  27 C27           -3.0261    -4.6029     0.1834 C.ar    
  28 C28           -1.1864     3.4160     0.3990 C.3     
  29 C29           -0.0355     4.0995    -0.3511 C.3     
  30 C30           -6.1897    -2.8266    -0.7861 C.2     
  31 N31           -7.0697    -2.9993     0.1841 N.2     
  32 C32           -8.1746    -2.3488    -0.2125 C.2     
  33 N33           -7.9258    -1.8227    -1.3754 N.2     
  34 O34           -6.7924    -2.0786    -1.7232 O.3     
  35 C35           -9.4697    -2.2470     0.5514 C.3     
  36 H36           -0.9268    -0.5549     0.0097 H       
  37 H37            3.3147     1.9552    -0.0201 H       
  38 H38            3.1568    -2.2584    -1.5115 H       
  39 H39            3.5755    -2.9288     0.1003 H       
  40 H40            2.4662    -1.7861     2.7401 H       
  41 H41            1.7303    -3.2398     4.5894 H       
  42 H42            0.1660    -5.0885     4.1500 H       
  43 H43           -0.6672    -5.4899     1.8756 H       
  44 H44           -0.5200    -5.0399    -1.9853 H       
  45 H45           -0.7591    -5.7992    -0.3932 H       
  46 H46           -2.0682    -3.3684    -2.8106 H       
  47 H47           -4.3661    -2.4933    -2.7508 H       
  48 H48           -4.9422    -4.3229     1.0851 H       
  49 H49           -2.6434    -5.1936     1.0026 H       
  50 H50           -2.1315     3.8883     0.1310 H       
  51 H51           -1.0253     3.4985     1.4739 H       
  52 H52            0.0114     5.1521    -0.0718 H       
  53 H53           -0.1932     4.0105    -1.4259 H       
  54 H54           -9.4436    -1.3677     1.1951 H       
  55 H55          -10.2994    -2.1593    -0.1500 H       
  56 H56           -9.6027    -3.1402     1.1618 H       
@<TRIPOS>BOND
   1    1    2 ar
   2    1    6 ar
   3    1   20 1
   4    2    3 ar
   5    2   36 1
   6    3    4 ar
   7    3    8 1
   8    4    5 ar
   9    4    7 1
  10    5    6 ar
  11    5   37 1
  12    6   21 1
  13    7    9 1
  14    8    9 1
  15    8   11 1
  16    8   12 1
  17    9   38 1
  18    9   39 1
  19   10   11 ar
  20   10   13 1
  21   10   18 ar
  22   11   15 ar
  23   12   13 am
  24   12   14 2
  25   13   19 1
  26   15   16 ar
  27   15   40 1
  28   16   17 ar
  29   16   41 1
  30   17   18 ar
  31   17   42 1
  32   18   43 1
  33   19   22 1
  34   19   44 1
  35   19   45 1
  36   20   28 1
  37   21   29 1
  38   22   23 ar
  39   22   27 ar
  40   23   24 ar
  41   23   46 1
  42   24   25 ar
  43   24   47 1
  44   25   26 ar
  45   25   30 1
  46   26   27 ar
  47   26   48 1
  48   27   49 1
  49   28   29 1
  50   28   50 1
  51   28   51 1
  52   29   52 1
  53   29   53 1
  54   30   31 2
  55   30   34 1
  56   31   32 1
  57   32   33 2
  58   32   35 1
  59   33   34 1
  60   35   54 1
  61   35   55 1
  62   35   56 1

#	End of record

