#	Name: ASD08070271
#	Creating user name:	WinNT
#	Creation time:	15. 06. 2019 21:14

#	Modifying user name:	WinNT
#	Modification time:	15. 06. 2019 21:14

#	Program:	/corina/corina34_cracker 3.40 0067  02.08.2006

@<TRIPOS>MOLECULE
ASD08070271
  52   53    0    0    0
SMALL
NO_CHARGES


@<TRIPOS>ATOM
   1 C1            -0.0179     1.4718     0.0101 C.2     
   2 C2             0.0021    -0.0041     0.0020 C.ar    
   3 C3             1.2206    -0.6881    -0.0133 C.ar    
   4 C4             1.2351    -2.0649    -0.0209 C.ar    
   5 C5             0.0396    -2.7744    -0.0138 C.ar    
   6 C6            -1.1742    -2.0979     0.0014 C.ar    
   7 C7            -1.1971    -0.7209     0.0154 C.ar    
   8 O8             1.0266     2.0940     0.0035 O.2     
   9 N9            -1.1942     2.1298     0.0193 N.am    
  10 C10            2.5485    -2.8035    -0.0374 C.3     
  11 C11           -1.2140     3.5946     0.0273 C.3     
  12 C12           -1.1021     4.1141    -1.4074 C.3     
  13 C13            0.2626     3.7309    -1.9835 C.3     
  14 C14            0.3746     4.2504    -3.4182 C.3     
  15 C15           -2.5056     4.0761     0.6366 C.ar    
  16 C16           -2.5034     5.1669     1.4862 C.ar    
  17 C17           -3.6860     5.6103     2.0459 C.ar    
  18 C18           -4.8764     4.9600     1.7549 C.ar    
  19 C19           -4.8759     3.8658     0.9021 C.ar    
  20 C20           -3.6915     3.4298     0.3405 C.ar    
  21 O21           -6.0411     5.3940     2.3047 O.3     
  22 C22           -7.2279     4.6764     1.9605 C.3     
  23 O23            0.0580    -4.1314    -0.0222 O.3     
  24 C24           -1.2062    -4.7974    -0.0142 C.3     
  25 C25           -0.9852    -6.3113    -0.0255 C.3     
  26 H26            2.1498    -0.1376    -0.0195 H       
  27 H27           -2.1008    -2.6527     0.0069 H       
  28 H28           -2.1407    -0.1959     0.0317 H       
  29 H29           -2.0275     1.6334     0.0205 H       
  30 H30            2.8750    -2.9872     0.9862 H       
  31 H31            2.4240    -3.7546    -0.5552 H       
  32 H32            3.2965    -2.2031    -0.5551 H       
  33 H33           -0.3744     3.9661     0.6148 H       
  34 H34           -1.8906     3.6720    -2.0164 H       
  35 H35           -1.2059     5.1991    -1.4101 H       
  36 H36            1.0511     4.1730    -1.3744 H       
  37 H37            0.3665     2.6459    -1.9808 H       
  38 H38           -0.4140     3.8084    -4.0273 H       
  39 H39            0.2707     5.3354    -3.4209 H       
  40 H40            1.3468     3.9775    -3.8286 H       
  41 H41           -1.5764     5.6726     1.7127 H       
  42 H42           -3.6838     6.4622     2.7098 H       
  43 H43           -5.8014     3.3578     0.6741 H       
  44 H44           -3.6912     2.5809    -0.3272 H       
  45 H45           -8.0832     5.1252     2.4657 H       
  46 H46           -7.3790     4.7200     0.8819 H       
  47 H47           -7.1269     3.6366     2.2714 H       
  48 H48           -1.7587    -4.5175     0.8828 H       
  49 H49           -1.7756    -4.5067    -0.8970 H       
  50 H50           -0.4328    -6.5912    -0.9225 H       
  51 H51           -0.4159    -6.6020     0.8574 H       
  52 H52           -1.9496    -6.8193    -0.0193 H       
@<TRIPOS>BOND
   1    1    2 1
   2    1    8 2
   3    1    9 am
   4    2    3 ar
   5    2    7 ar
   6    3    4 ar
   7    3   26 1
   8    4    5 ar
   9    4   10 1
  10    5    6 ar
  11    5   23 1
  12    6    7 ar
  13    6   27 1
  14    7   28 1
  15    9   11 1
  16    9   29 1
  17   10   30 1
  18   10   31 1
  19   10   32 1
  20   11   12 1
  21   11   15 1
  22   11   33 1
  23   12   13 1
  24   12   34 1
  25   12   35 1
  26   13   14 1
  27   13   36 1
  28   13   37 1
  29   14   38 1
  30   14   39 1
  31   14   40 1
  32   15   16 ar
  33   15   20 ar
  34   16   17 ar
  35   16   41 1
  36   17   18 ar
  37   17   42 1
  38   18   19 ar
  39   18   21 1
  40   19   20 ar
  41   19   43 1
  42   20   44 1
  43   21   22 1
  44   22   45 1
  45   22   46 1
  46   22   47 1
  47   23   24 1
  48   24   25 1
  49   24   48 1
  50   24   49 1
  51   25   50 1
  52   25   51 1
  53   25   52 1

#	End of record

