#	Name: ASD01910507
#	Creating user name:	WinNT
#	Creation time:	15. 06. 2019 19:56

#	Modifying user name:	WinNT
#	Modification time:	15. 06. 2019 19:56

#	Program:	/corina/corina34_cracker 3.40 0067  02.08.2006

@<TRIPOS>MOLECULE
ASD01910507
  42   45    0    0    0
SMALL
NO_CHARGES


@<TRIPOS>ATOM
   1 O1            -0.0070     1.3008     0.0309 O.3     
   2 C2             0.0238    -0.0427     0.0348 C.2     
   3 N3             1.3021    -0.3912     0.0196 N.2     
   4 C4             1.9880     0.7612     0.0072 C.2     
   5 N5             1.1254     1.7348     0.0151 N.2     
   6 C6            -1.1329    -0.9475     0.0529 C.2     
   7 C7            -2.4483    -0.5741     0.0685 C.2     
   8 C8            -3.2133    -1.7468     0.0819 C.2     
   9 C9            -2.3598    -2.7972     0.0744 C.2     
  10 N10           -1.0872    -2.3216     0.0511 N.pl3   
  11 C11            3.9138     1.6654    -1.2705 C.3     
  12 C12            3.4882     0.9028    -0.0119 C.3     
  13 C13            3.9441     1.6766     1.2272 C.3     
  14 C14            5.4701     1.7925     1.2256 C.3     
  15 C15            5.9182     2.5652    -0.0190 C.3     
  16 N16            5.3616     1.9081    -1.2094 N.am    
  17 C17            6.1639     1.5351    -2.2261 C.2     
  18 C18            5.6052     0.7933    -3.3730 C.ar    
  19 O19            7.3480     1.8098    -2.1984 O.2     
  20 C20            4.5235     1.3154    -4.0863 C.ar    
  21 C21            4.0060     0.6189    -5.1565 C.ar    
  22 C22            4.5559    -0.5993    -5.5278 C.ar    
  23 C23            5.6288    -1.1244    -4.8259 C.ar    
  24 C24            6.1603    -0.4334    -3.7542 C.ar    
  25 F25            4.0429    -1.2768    -6.5780 F       
  26 F26            7.2068    -0.9453    -3.0699 F       
  27 H27           -2.8268     0.4374     0.0704 H       
  28 H28           -4.2917    -1.8031     0.0958 H       
  29 H29           -2.6430    -3.8394     0.0813 H       
  30 H30           -0.2812    -2.8613     0.0413 H       
  31 H31            3.6798     1.0718    -2.1542 H       
  32 H32            3.3854     2.6176    -1.3170 H       
  33 H33            3.9470    -0.0860    -0.0131 H       
  34 H34            3.5042     2.6738     1.2148 H       
  35 H35            3.6210     1.1485     2.1244 H       
  36 H36            5.7957     2.3233     2.1202 H       
  37 H37            5.9107     0.7955     1.2130 H       
  38 H38            5.5532     3.5908     0.0366 H       
  39 H39            7.0067     2.5652    -0.0769 H       
  40 H40            4.0933     2.2634    -3.7991 H       
  41 H41            3.1695     1.0223    -5.7078 H       
  42 H42            6.0525    -2.0735    -5.1193 H       
@<TRIPOS>BOND
   1    1    2 1
   2    1    5 1
   3    2    3 2
   4    2    6 1
   5    3    4 1
   6    4    5 2
   7    4   12 1
   8    6    7 2
   9    6   10 1
  10    7    8 1
  11    7   27 1
  12    8    9 2
  13    8   28 1
  14    9   10 1
  15    9   29 1
  16   10   30 1
  17   11   12 1
  18   11   16 1
  19   11   31 1
  20   11   32 1
  21   12   13 1
  22   12   33 1
  23   13   14 1
  24   13   34 1
  25   13   35 1
  26   14   15 1
  27   14   36 1
  28   14   37 1
  29   15   16 1
  30   15   38 1
  31   15   39 1
  32   16   17 am
  33   17   18 1
  34   17   19 2
  35   18   20 ar
  36   18   24 ar
  37   20   21 ar
  38   20   40 1
  39   21   22 ar
  40   21   41 1
  41   22   23 ar
  42   22   25 1
  43   23   24 ar
  44   23   42 1
  45   24   26 1

#	End of record

