#	Name: ASD00311061
#	Creating user name:	WinNT
#	Creation time:	15. 06. 2019 18:34

#	Modifying user name:	WinNT
#	Modification time:	15. 06. 2019 18:34

#	Program:	/corina/corina34_cracker 3.40 0067  02.08.2006

@<TRIPOS>MOLECULE
ASD00311061
  39   42    0    0    0
SMALL
NO_CHARGES


@<TRIPOS>ATOM
   1 C1            -0.0167     1.3775     0.0096 C.2     
   2 C2             0.0021    -0.0041     0.0020 C.2     
   3 C3             1.2586    -0.6767    -0.0140 C.2     
   4 C4             2.4315     0.0671    -0.0217 C.2     
   5 C5             2.3575     1.4749    -0.0134 C.2     
   6 N6             1.1650     2.0901     0.0022 N.am    
   7 C7            -1.3435    -0.5754     0.0123 C.2     
   8 C8            -2.3233     0.3267     0.0268 C.2     
   9 S9            -1.6791     1.9565     0.0358 S.3     
  10 O10            3.3824     2.1371    -0.0196 O.2     
  11 C11           -1.5961    -2.0354     0.0065 C.ar    
  12 C12           -2.2067    -2.6446     1.1023 C.ar    
  13 C13           -2.4392    -4.0046     1.0911 C.ar    
  14 C14           -2.0680    -4.7637    -0.0043 C.ar    
  15 C15           -1.4619    -4.1651    -1.0943 C.ar    
  16 C16           -1.2293    -2.8049    -1.0972 C.ar    
  17 C17            3.7475    -0.6123    -0.0379 C.ar    
  18 C18            4.5931    -0.4750    -1.1389 C.ar    
  19 C19            5.8178    -1.1099    -1.1478 C.ar    
  20 C20            6.2080    -1.8820    -0.0679 C.ar    
  21 C21            5.3738    -2.0224     1.0265 C.ar    
  22 C22            4.1488    -1.3872     1.0499 C.ar    
  23 C23            6.7325    -0.9626    -2.3364 C.3     
  24 F24            7.5690     0.1427    -2.1470 F       
  25 F25            7.5098    -2.1178    -2.4727 F       
  26 F26            5.9678    -0.7760    -3.4930 F       
  27 O27            1.3083    -2.0292    -0.0213 O.3     
  28 Cl28          -4.0154    -0.0609     0.0415 Cl      
  29 H29            1.1328     3.0595     0.0073 H       
  30 H30           -2.4966    -2.0531     1.9582 H       
  31 H31           -2.9117    -4.4776     1.9393 H       
  32 H32           -2.2518    -5.8279    -0.0084 H       
  33 H33           -1.1740    -4.7628    -1.9465 H       
  34 H34           -0.7602    -2.3380    -1.9506 H       
  35 H35            4.2893     0.1269    -1.9826 H       
  36 H36            7.1676    -2.3774    -0.0797 H       
  37 H37            5.6836    -2.6266     1.8663 H       
  38 H38            3.5002    -1.4939     1.9069 H       
  39 H39            2.2055    -2.3898    -0.0322 H       
@<TRIPOS>BOND
   1    1    2 2
   2    1    6 1
   3    1    9 1
   4    2    3 1
   5    2    7 1
   6    3    4 2
   7    3   27 1
   8    4    5 1
   9    4   17 1
  10    5    6 am
  11    5   10 2
  12    6   29 1
  13    7    8 2
  14    7   11 1
  15    8    9 1
  16    8   28 1
  17   11   12 ar
  18   11   16 ar
  19   12   13 ar
  20   12   30 1
  21   13   14 ar
  22   13   31 1
  23   14   15 ar
  24   14   32 1
  25   15   16 ar
  26   15   33 1
  27   16   34 1
  28   17   18 ar
  29   17   22 ar
  30   18   19 ar
  31   18   35 1
  32   19   20 ar
  33   19   23 1
  34   20   21 ar
  35   20   36 1
  36   21   22 ar
  37   21   37 1
  38   22   38 1
  39   23   24 1
  40   23   25 1
  41   23   26 1
  42   27   39 1

#	End of record

