#	Name: ASD04590204
#	Creating user name:	WinNT
#	Creation time:	15. 06. 2019 20:50

#	Modifying user name:	WinNT
#	Modification time:	15. 06. 2019 20:50

#	Program:	/corina/corina34_cracker 3.40 0067  02.08.2006

@<TRIPOS>MOLECULE
ASD04590204
  60   62    0    0    0
SMALL
NO_CHARGES


@<TRIPOS>ATOM
   1 N1            -0.0153     1.2802     0.0091 N.pl3   
   2 N2             0.0021    -0.0041     0.0020 N.2     
   3 C3             1.2455    -0.4440    -0.0122 C.2     
   4 C4             2.0903     0.6961    -0.0142 C.2     
   5 C5             1.2523     1.7667    -0.0004 C.2     
   6 C6             1.6765    -1.8547    -0.0235 C.2     
   7 N7             0.7571    -2.8402    -0.0200 N.am    
   8 N8             3.4930     0.7146    -0.0275 N.am    
   9 O9             2.8611    -2.1284    -0.0359 O.2     
  10 C10            4.1514     1.8906    -0.0274 C.2     
  11 C11            5.6264     1.9101    -0.0414 C.ar    
  12 O12            3.5296     2.9356    -0.0159 O.2     
  13 C13            1.1851    -4.2412    -0.0312 C.3     
  14 C14           -0.8314    -4.9567    -1.3251 C.3     
  15 C15           -0.0454    -5.1504    -0.0245 C.3     
  16 C16            6.3414     1.9129     1.1612 C.ar    
  17 C17            7.7233     1.9313     1.1389 C.ar    
  18 C18            8.3992     1.9473    -0.0677 C.ar    
  19 C19            7.7004     1.9452    -1.2612 C.ar    
  20 C20            6.3184     1.9201    -1.2574 C.ar    
  21 F21            5.6831     1.8982     2.3408 F       
  22 F22            5.6376     1.9176    -2.4243 F       
  23 N23           -1.9338    -5.9274    -1.3604 N.am    
  24 C24           -1.6270    -7.3520    -1.1735 C.3     
  25 C25           -0.8321    -7.5189     0.1254 C.3     
  26 C26            0.3991    -6.6107     0.0855 C.3     
  27 C27           -3.2025    -5.5186    -1.5601 C.2     
  28 O28           -3.4433    -4.3374    -1.7130 O.2     
  29 O29           -4.2030    -6.4190    -1.5902 O.3     
  30 C30           -5.5440    -5.9072    -1.8095 C.3     
  31 C31           -5.6002    -5.1851    -3.1572 C.3     
  32 C32           -6.5393    -7.0692    -1.8117 C.3     
  33 C33           -5.9056    -4.9281    -0.6908 C.3     
  34 H34           -0.8184     1.8242     0.0160 H       
  35 H35            1.5405     2.8076     0.0024 H       
  36 H36           -0.1879    -2.6218    -0.0102 H       
  37 H37            3.9890    -0.1189    -0.0367 H       
  38 H38            1.7744    -4.4340    -0.9277 H       
  39 H39            1.7909    -4.4431     0.8522 H       
  40 H40           -1.2344    -3.9446    -1.3612 H       
  41 H41           -0.1727    -5.1207    -2.1780 H       
  42 H42           -0.6799    -4.8978     0.8250 H       
  43 H43            8.2768     1.9335     2.0662 H       
  44 H44            9.4791     1.9620    -0.0779 H       
  45 H45            8.2361     1.9585    -2.1989 H       
  46 H46           -2.5549    -7.9203    -1.1096 H       
  47 H47           -1.0332    -7.7113    -2.0140 H       
  48 H48           -1.4593    -7.2444     0.9736 H       
  49 H49           -0.5154    -8.5569     0.2273 H       
  50 H50            1.0133    -6.8693    -0.7770 H       
  51 H51            0.9796    -6.7458     0.9981 H       
  52 H52           -5.3426    -5.8827    -3.9542 H       
  53 H53           -6.6069    -4.8009    -3.3219 H       
  54 H54           -4.8911    -4.3573    -3.1557 H       
  55 H55           -6.4993    -7.5837    -0.8516 H       
  56 H56           -7.5460    -6.6851    -1.9764 H       
  57 H57           -6.2818    -7.7668    -2.6087 H       
  58 H58           -5.1965    -4.1003    -0.6893 H       
  59 H59           -6.9123    -4.5439    -0.8555 H       
  60 H60           -5.8656    -5.4426     0.2693 H       
@<TRIPOS>BOND
   1    1    2 1
   2    1    5 1
   3    1   34 1
   4    2    3 2
   5    3    4 1
   6    3    6 1
   7    4    5 2
   8    4    8 1
   9    5   35 1
  10    6    7 am
  11    6    9 2
  12    7   13 1
  13    7   36 1
  14    8   10 am
  15    8   37 1
  16   10   11 1
  17   10   12 2
  18   11   16 ar
  19   11   20 ar
  20   13   15 1
  21   13   38 1
  22   13   39 1
  23   14   15 1
  24   14   23 1
  25   14   40 1
  26   14   41 1
  27   15   26 1
  28   15   42 1
  29   16   17 ar
  30   16   21 1
  31   17   18 ar
  32   17   43 1
  33   18   19 ar
  34   18   44 1
  35   19   20 ar
  36   19   45 1
  37   20   22 1
  38   23   24 1
  39   23   27 am
  40   24   25 1
  41   24   46 1
  42   24   47 1
  43   25   26 1
  44   25   48 1
  45   25   49 1
  46   26   50 1
  47   26   51 1
  48   27   28 2
  49   27   29 1
  50   29   30 1
  51   30   31 1
  52   30   32 1
  53   30   33 1
  54   31   52 1
  55   31   53 1
  56   31   54 1
  57   32   55 1
  58   32   56 1
  59   32   57 1
  60   33   58 1
  61   33   59 1
  62   33   60 1

#	End of record

