#	Name: ASD01913321
#	Creating user name:	WinNT
#	Creation time:	15. 06. 2019 20:01

#	Modifying user name:	WinNT
#	Modification time:	15. 06. 2019 20:01

#	Program:	/corina/corina34_cracker 3.40 0067  02.08.2006

@<TRIPOS>MOLECULE
ASD01913321
  46   49    0    0    0
SMALL
NO_CHARGES


@<TRIPOS>ATOM
   1 C1            -0.0447     1.4156    -0.0216 C.ar    
   2 C2            -0.0392     0.0187    -0.0390 C.ar    
   3 C3             1.1911    -0.6526    -0.0530 C.ar    
   4 C4             2.3498     0.1027    -0.0491 C.ar    
   5 C5             2.2587     1.4833    -0.0315 C.ar    
   6 N6             1.0869     2.0891    -0.0185 N.ar    
   7 C7             3.5194     2.3089    -0.0267 C.3     
   8 C8            -1.2692    -0.7146    -0.0419 C.1     
   9 C9            -2.2776    -1.3158    -0.0442 C.1     
  10 C10           -3.5076    -2.0491    -0.0471 C.ar    
  11 C11           -3.4920    -3.4462    -0.0645 C.ar    
  12 C12           -4.6806    -4.1458    -0.0672 C.ar    
  13 C13           -5.8866    -3.4674    -0.0533 C.ar    
  14 C14           -5.9099    -2.0839    -0.0365 C.ar    
  15 C15           -4.7292    -1.3710    -0.0268 C.ar    
  16 N16            3.8561     2.6942    -1.3994 N.am    
  17 C17            3.3984     3.9157    -2.0782 C.3     
  18 C18            4.0364     3.8216    -3.4777 C.3     
  19 N19            4.7860     2.5571    -3.4389 N.am    
  20 C20            4.6345     1.9926    -2.2337 C.2     
  21 C21            5.5422     2.0301    -4.4919 C.ar    
  22 C22            5.5330     2.6510    -5.7340 C.ar    
  23 C23            6.2804     2.1284    -6.7712 C.ar    
  24 C24            7.0370     0.9879    -6.5740 C.ar    
  25 C25            7.0480     0.3670    -5.3385 C.ar    
  26 C26            6.3080     0.8884    -4.2954 C.ar    
  27 O27            5.1497     0.9346    -1.9277 O.2     
  28 H28           -0.9846     1.9474    -0.0152 H       
  29 H29            1.2333    -1.7317    -0.0662 H       
  30 H30            3.3158    -0.3801    -0.0592 H       
  31 H31            3.3647     3.2048     0.5746 H       
  32 H32            4.3354     1.7234     0.3969 H       
  33 H33           -2.5514    -3.9770    -0.0761 H       
  34 H34           -4.6701    -5.2256    -0.0807 H       
  35 H35           -6.8143    -4.0204    -0.0558 H       
  36 H36           -6.8549    -1.5611    -0.0260 H       
  37 H37           -4.7489    -0.2913    -0.0133 H       
  38 H38            2.3110     3.9270    -2.1534 H       
  39 H39            3.7558     4.8018    -1.5535 H       
  40 H40            3.2659     3.7862    -4.2479 H       
  41 H41            4.7107     4.6610    -3.6480 H       
  42 H42            4.9417     3.5414    -5.8889 H       
  43 H43            6.2737     2.6108    -7.7375 H       
  44 H44            7.6204     0.5810    -7.3867 H       
  45 H45            7.6397    -0.5238    -5.1876 H       
  46 H46            6.3172     0.4032    -3.3305 H       
@<TRIPOS>BOND
   1    1    2 ar
   2    1    6 ar
   3    1   28 1
   4    2    3 ar
   5    2    8 1
   6    3    4 ar
   7    3   29 1
   8    4    5 ar
   9    4   30 1
  10    5    6 ar
  11    5    7 1
  12    7   16 1
  13    7   31 1
  14    7   32 1
  15    8    9 3
  16    9   10 1
  17   10   11 ar
  18   10   15 ar
  19   11   12 ar
  20   11   33 1
  21   12   13 ar
  22   12   34 1
  23   13   14 ar
  24   13   35 1
  25   14   15 ar
  26   14   36 1
  27   15   37 1
  28   16   17 1
  29   16   20 am
  30   17   18 1
  31   17   38 1
  32   17   39 1
  33   18   19 1
  34   18   40 1
  35   18   41 1
  36   19   20 am
  37   19   21 1
  38   20   27 2
  39   21   22 ar
  40   21   26 ar
  41   22   23 ar
  42   22   42 1
  43   23   24 ar
  44   23   43 1
  45   24   25 ar
  46   24   44 1
  47   25   26 ar
  48   25   45 1
  49   26   46 1

#	End of record

