#	Name: ASD06020042
#	Creating user name:	WinNT
#	Creation time:	15. 06. 2019 21:04

#	Modifying user name:	WinNT
#	Modification time:	15. 06. 2019 21:04

#	Program:	/corina/corina34_cracker 3.40 0067  02.08.2006

@<TRIPOS>MOLECULE
ASD06020042
  41   44    0    0    0
SMALL
NO_CHARGES


@<TRIPOS>ATOM
   1 N1            -0.0167     1.3827     0.0096 N.pl3   
   2 C2             1.6751    -1.7553    -0.1802 C.ar    
   3 N3             1.4511    -0.4571    -0.1513 N.ar    
   4 C4             0.2152     0.0157    -0.0209 C.ar    
   5 C5            -0.8455    -0.8864     0.0853 C.ar    
   6 C6            -0.5628    -2.2377     0.0501 C.ar    
   7 N7             0.6960    -2.6317    -0.0824 N.ar    
   8 C8            -1.6718    -3.2520     0.1613 C.3     
   9 C9             1.0554     2.2707     0.0148 C.ar    
  10 C10            0.8193     3.6469    -0.0675 C.ar    
  11 C11            1.9016     4.5344    -0.0619 C.ar    
  12 C12            3.1989     3.9688     0.0286 C.ar    
  13 C13            3.3380     2.6189     0.1047 C.ar    
  14 N14            2.2908     1.8091     0.1028 N.ar    
  15 S15           -0.6655     4.5846    -0.1856 S.3     
  16 C16            0.2673     6.0755    -0.2179 C.2     
  17 N17            1.5316     5.8130    -0.1448 N.2     
  18 C18           -0.3104     7.4326    -0.3154 C.ar    
  19 C19            0.5254     8.5514    -0.3331 C.ar    
  20 C20           -0.0214     9.8162    -0.4243 C.ar    
  21 C21           -1.3934     9.9766    -0.4975 C.ar    
  22 C22           -2.2274     8.8731    -0.4800 C.ar    
  23 C23           -1.6944     7.6019    -0.3959 C.ar    
  24 Cl24          -2.7425     6.2181    -0.3819 Cl      
  25 Cl25           2.2475     8.3525    -0.2402 Cl      
  26 C26           -1.9824    11.3602    -0.5964 C.3     
  27 N27           -2.1084    11.7389    -2.0101 N.3     
  28 H28           -0.9260     1.7202     0.0234 H       
  29 H29            2.6888    -2.1108    -0.2916 H       
  30 H30           -1.8615    -0.5360     0.1927 H       
  31 H31           -2.0456    -3.4922    -0.8340 H       
  32 H32           -1.2904    -4.1569     0.6342 H       
  33 H33           -2.4814    -2.8405     0.7640 H       
  34 H34            4.0706     4.6064     0.0368 H       
  35 H35            4.3293     2.1958     0.1731 H       
  36 H36            0.6237    10.6823    -0.4382 H       
  37 H37           -3.2977     9.0058    -0.5371 H       
  38 H38           -2.9668    11.3703    -0.1284 H       
  39 H39           -1.3306    12.0698    -0.0868 H       
  40 H40           -2.5013    12.6636    -2.1031 H       
  41 H41           -1.2189    11.6749    -2.4822 H       
@<TRIPOS>BOND
   1    1    4 1
   2    1    9 1
   3    1   28 1
   4    2    3 ar
   5    2    7 ar
   6    2   29 1
   7    3    4 ar
   8    4    5 ar
   9    5    6 ar
  10    5   30 1
  11    6    7 ar
  12    6    8 1
  13    8   31 1
  14    8   32 1
  15    8   33 1
  16    9   10 ar
  17    9   14 ar
  18   10   11 ar
  19   10   15 1
  20   11   12 ar
  21   11   17 1
  22   12   13 ar
  23   12   34 1
  24   13   14 ar
  25   13   35 1
  26   15   16 1
  27   16   17 2
  28   16   18 1
  29   18   19 ar
  30   18   23 ar
  31   19   20 ar
  32   19   25 1
  33   20   21 ar
  34   20   36 1
  35   21   22 ar
  36   21   26 1
  37   22   23 ar
  38   22   37 1
  39   23   24 1
  40   26   27 1
  41   26   38 1
  42   26   39 1
  43   27   40 1
  44   27   41 1

#	End of record

