#	Name: ASD01881454
#	Creating user name:	WinNT
#	Creation time:	15. 06. 2019 19:42

#	Modifying user name:	WinNT
#	Modification time:	15. 06. 2019 19:42

#	Program:	/corina/corina34_cracker 3.40 0067  02.08.2006

@<TRIPOS>MOLECULE
ASD01881454
  47   51    0    0    0
SMALL
NO_CHARGES


@<TRIPOS>ATOM
   1 C1            -2.1913     2.0674    -0.5027 C.3     
   2 C2             0.9608     9.5922     4.6335 C.ar    
   3 C3             0.9352     8.4894     3.8067 C.ar    
   4 C4            -0.2279    10.1581     5.0760 C.ar    
   5 C5            -1.4459     9.6153     4.6874 C.ar    
   6 C6            -1.4785     8.5127     3.8608 C.ar    
   7 C7            -0.2865     7.9419     3.4145 C.ar    
   8 C8            -0.3178     6.7571     2.5256 C.2     
   9 C9             0.1586     6.8432     1.2308 C.2     
  10 C10           -0.8308     5.5237     2.9959 C.2     
  11 C11           -0.8584     4.4484     2.1865 C.2     
  12 N12           -0.3952     4.5258     0.9046 N.pl3   
  13 C13            0.1156     5.7023     0.4117 C.2     
  14 C14           -0.3019     3.6253    -0.1127 C.2     
  15 N15            0.2263     4.2423    -1.1379 N.2     
  16 N16            0.4778     5.4686    -0.8405 N.2     
  17 C17           -0.7294     2.1810    -0.0657 C.3     
  18 O18           -0.1992    11.2444     5.8910 O.3     
  19 C19           -0.2006    11.0351     7.2325 C.ar    
  20 C20           -0.2870    12.1046     8.1232 C.ar    
  21 C21           -0.1217     9.7467     7.7542 C.ar    
  22 C22           -0.2852    11.8487     9.4811 C.ar    
  23 N23           -0.2033    10.6125     9.9355 N.ar    
  24 C24           -0.1259     9.5753     9.1235 C.ar    
  25 C25           -2.7818     0.6622    -0.6355 C.3     
  26 C26           -3.2000     1.5607     0.5301 C.3     
  27 F27           -0.3706    13.3727     7.6650 F       
  28 C28            0.7154     8.1413     0.7055 C.3     
  29 F29            2.1059     8.1485     0.8592 F       
  30 F30            0.3954     8.2713    -0.6502 F       
  31 F31            0.1618     9.2092     1.4198 F       
  32 H32           -2.5311     2.8249    -1.2089 H       
  33 H33            1.9063    10.0139     4.9411 H       
  34 H34            1.8599     8.0501     3.4626 H       
  35 H35           -2.3684    10.0577     5.0333 H       
  36 H36           -2.4260     8.0911     3.5589 H       
  37 H37           -1.2012     5.4455     4.0073 H       
  38 H38           -1.2512     3.5127     2.5561 H       
  39 H39           -0.6239     1.8037     0.9514 H       
  40 H40           -0.1028     1.5945    -0.7376 H       
  41 H41           -0.0584     8.8928     7.0960 H       
  42 H42           -0.3514    12.6704    10.1789 H       
  43 H43           -0.0602     8.5793     9.5361 H       
  44 H44           -3.5103     0.4953    -1.4289 H       
  45 H45           -2.1288    -0.1814    -0.4116 H       
  46 H46           -2.8222     1.3082     1.5209 H       
  47 H47           -4.2037     1.9849     0.5036 H       
@<TRIPOS>BOND
   1    1   25 1
   2    1   17 1
   3    1   26 1
   4    1   32 1
   5    2    3 ar
   6    2    4 ar
   7    2   33 1
   8    3    7 ar
   9    3   34 1
  10    4    5 ar
  11    4   18 1
  12    5    6 ar
  13    5   35 1
  14    6    7 ar
  15    6   36 1
  16    7    8 1
  17    8    9 2
  18    8   10 1
  19    9   28 1
  20    9   13 1
  21   10   11 2
  22   10   37 1
  23   11   12 1
  24   11   38 1
  25   12   13 1
  26   12   14 1
  27   13   16 2
  28   14   15 2
  29   14   17 1
  30   15   16 1
  31   17   39 1
  32   17   40 1
  33   18   19 1
  34   19   20 ar
  35   19   21 ar
  36   20   22 ar
  37   20   27 1
  38   21   24 ar
  39   21   41 1
  40   22   23 ar
  41   22   42 1
  42   23   24 ar
  43   24   43 1
  44   25   26 1
  45   25   44 1
  46   25   45 1
  47   26   46 1
  48   26   47 1
  49   28   29 1
  50   28   30 1
  51   28   31 1

#	End of record

