#	Name: ASD01903115
#	Creating user name:	WinNT
#	Creation time:	15. 06. 2019 19:54

#	Modifying user name:	WinNT
#	Modification time:	15. 06. 2019 19:54

#	Program:	/corina/corina34_cracker 3.40 0067  02.08.2006

@<TRIPOS>MOLECULE
ASD01903115
  45   48    0    0    0
SMALL
NO_CHARGES


@<TRIPOS>ATOM
   1 C1            -0.0657     1.5472    -0.0883 C.3     
   2 C2             0.0790     0.0500     0.1615 C.3     
   3 C3             0.9848    -0.6230    -0.8893 C.3     
   4 C4             2.3153     0.0945    -0.8211 C.3     
   5 C5             2.0499     1.5468    -1.3185 C.3     
   6 C6             1.2995     2.2488    -0.2117 C.3     
   7 C7             3.4132    -0.3037    -1.7560 C.2     
   8 N8             4.0948     0.8384    -2.0423 N.am    
   9 C9             3.4453     1.9684    -1.6521 C.2     
  10 O10            3.9041     3.0887    -1.5882 O.2     
  11 O11            3.6482    -1.4175    -2.1730 O.2     
  12 C12            5.3463     0.8498    -2.6776 C.ar    
  13 C13            5.4211     0.9116    -4.0620 C.ar    
  14 C14            6.6520     0.9223    -4.6875 C.ar    
  15 C15            7.8159     0.8717    -3.9315 C.ar    
  16 C16            7.7417     0.8103    -2.5456 C.ar    
  17 C17            6.5105     0.8048    -1.9200 C.ar    
  18 Cl18           6.4169     0.7281    -0.1882 Cl      
  19 N19            9.0632     0.8822    -4.5656 N.am    
  20 C20           10.0838     0.1636    -4.0571 C.2     
  21 C21           11.3729     0.0916    -4.7831 C.ar    
  22 N22           11.5170     0.7368    -5.9340 N.ar    
  23 C23           12.6446     0.6987    -6.6099 C.ar    
  24 C24           13.7311    -0.0224    -6.1415 C.ar    
  25 C25           13.6239    -0.7113    -4.9432 C.ar    
  26 C26           12.4260    -0.6484    -4.2494 C.ar    
  27 O27            9.9463    -0.4253    -3.0029 O.2     
  28 H28           -0.6268     1.6997    -1.0103 H       
  29 H29           -0.6190     1.9922     0.7387 H       
  30 H30            0.5084    -0.1047     1.1513 H       
  31 H31           -0.9075    -0.4123     0.1279 H       
  32 H32            1.1156    -1.6784    -0.6502 H       
  33 H33            0.5507    -0.5138    -1.8831 H       
  34 H34            2.6759     0.1125     0.2074 H       
  35 H35            1.4401     1.5232    -2.2216 H       
  36 H36            1.1574     3.2992    -0.4655 H       
  37 H37            1.8496     2.1616     0.7253 H       
  38 H38            4.5163     0.9509    -4.6504 H       
  39 H39            6.7097     0.9697    -5.7649 H       
  40 H40            8.6467     0.7709    -1.9575 H       
  41 H41            9.1933     1.4066    -5.3712 H       
  42 H42           12.7247     1.2365    -7.5431 H       
  43 H43           14.6524    -0.0477    -6.7045 H       
  44 H44           14.4564    -1.2807    -4.5572 H       
  45 H45           12.3075    -1.1724    -3.3125 H       
@<TRIPOS>BOND
   1    1    2 1
   2    1    6 1
   3    1   28 1
   4    1   29 1
   5    2    3 1
   6    2   30 1
   7    2   31 1
   8    3    4 1
   9    3   32 1
  10    3   33 1
  11    4    5 1
  12    4    7 1
  13    4   34 1
  14    5    6 1
  15    5    9 1
  16    5   35 1
  17    6   36 1
  18    6   37 1
  19    7    8 am
  20    7   11 2
  21    8    9 am
  22    8   12 1
  23    9   10 2
  24   12   13 ar
  25   12   17 ar
  26   13   14 ar
  27   13   38 1
  28   14   15 ar
  29   14   39 1
  30   15   16 ar
  31   15   19 1
  32   16   17 ar
  33   16   40 1
  34   17   18 1
  35   19   20 am
  36   19   41 1
  37   20   21 1
  38   20   27 2
  39   21   22 ar
  40   21   26 ar
  41   22   23 ar
  42   23   24 ar
  43   23   42 1
  44   24   25 ar
  45   24   43 1
  46   25   26 ar
  47   25   44 1
  48   26   45 1

#	End of record

