#	Name: ASD01917046
#	Creating user name:	WinNT
#	Creation time:	15. 06. 2019 20:08

#	Modifying user name:	WinNT
#	Modification time:	15. 06. 2019 20:08

#	Program:	/corina/corina34_cracker 3.40 0067  02.08.2006

@<TRIPOS>MOLECULE
ASD01917046
  40   42    0    0    0
SMALL
NO_CHARGES


@<TRIPOS>ATOM
   1 C1             0.0227     1.3585     0.0202 C.ar    
   2 C2             0.0108    -0.0273    -0.1390 C.ar    
   3 C3            -1.2637    -0.7744    -0.0516 C.2     
   4 N4            -2.4692    -0.2674    -0.1993 N.2     
   5 C5            -3.3848    -1.2316    -0.0554 C.2     
   6 N6            -2.7718    -2.3703     0.1868 N.2     
   7 N7            -1.3938    -2.1000     0.1884 N.pl3   
   8 C8            -0.3114    -3.0610     0.4143 C.3     
   9 C9             0.0846    -3.6891    -0.8971 C.2     
  10 O10            1.0639    -4.6063    -0.9334 O.3     
  11 O11           -0.4794    -3.3669    -1.9160 O.2     
  12 C12            1.3924    -5.1689    -2.2310 C.3     
  13 C13           -4.8541    -1.0470    -0.1532 C.ar    
  14 C14           -5.7080    -2.1345     0.0172 C.ar    
  15 C15           -5.3845     0.2158    -0.4101 C.ar    
  16 C16           -6.7513     0.3823    -0.4996 C.ar    
  17 C17           -7.5953    -0.7025    -0.3347 C.ar    
  18 C18           -7.0738    -1.9576    -0.0742 C.ar    
  19 Br19          -9.4676    -0.4671    -0.4580 Br      
  20 C20            1.2053    -0.7060    -0.3813 C.ar    
  21 C21            2.3902    -0.0037    -0.4621 C.ar    
  22 C22            2.3954     1.3705    -0.3029 C.ar    
  23 C23            1.2141     2.0494    -0.0628 C.ar    
  24 C24           -7.3262     1.7474    -0.7769 C.3     
  25 H25           -0.8994     1.8900     0.2036 H       
  26 H26            0.5476    -2.5463     0.8447 H       
  27 H27           -0.6516    -3.8366     1.1005 H       
  28 H28            2.1976    -5.8950    -2.1189 H       
  29 H29            0.5136    -5.6622    -2.6463 H       
  30 H30            1.7127    -4.3719    -2.9020 H       
  31 H31           -5.3019    -3.1145     0.2202 H       
  32 H32           -4.7268     1.0628    -0.5386 H       
  33 H33           -7.7363    -2.8008     0.0537 H       
  34 H34            1.2026    -1.7789    -0.5051 H       
  35 H35            3.3156    -0.5280    -0.6497 H       
  36 H36            3.3256     1.9157    -0.3663 H       
  37 H37            1.2246     3.1223     0.0603 H       
  38 H38           -7.4215     1.8898    -1.8533 H       
  39 H39           -8.3083     1.8295    -0.3112 H       
  40 H40           -6.6647     2.5105    -0.3666 H       
@<TRIPOS>BOND
   1    1    2 ar
   2    1   23 ar
   3    1   25 1
   4    2    3 1
   5    2   20 ar
   6    3    4 2
   7    3    7 1
   8    4    5 1
   9    5    6 2
  10    5   13 1
  11    6    7 1
  12    7    8 1
  13    8    9 1
  14    8   26 1
  15    8   27 1
  16    9   10 1
  17    9   11 2
  18   10   12 1
  19   12   28 1
  20   12   29 1
  21   12   30 1
  22   13   14 ar
  23   13   15 ar
  24   14   18 ar
  25   14   31 1
  26   15   16 ar
  27   15   32 1
  28   16   17 ar
  29   16   24 1
  30   17   18 ar
  31   17   19 1
  32   18   33 1
  33   20   21 ar
  34   20   34 1
  35   21   22 ar
  36   21   35 1
  37   22   23 ar
  38   22   36 1
  39   23   37 1
  40   24   38 1
  41   24   39 1
  42   24   40 1

#	End of record

