#	Name: ASD04910283
#	Creating user name:	WinNT
#	Creation time:	15. 06. 2019 20:55

#	Modifying user name:	WinNT
#	Modification time:	15. 06. 2019 20:55

#	Program:	/corina/corina34_cracker 3.40 0067  02.08.2006

@<TRIPOS>MOLECULE
ASD04910283
  51   53    0    0    0
SMALL
NO_CHARGES


@<TRIPOS>ATOM
   1 C1            -0.1619     1.4802     0.0986 C.2     
   2 C2            -0.1028     0.0045     0.0633 C.ar    
   3 C3             1.1309    -0.6467     0.0051 C.ar    
   4 C4             1.1789    -2.0249    -0.0271 C.ar    
   5 C5             0.0080    -2.7618    -0.0025 C.ar    
   6 C6            -1.2179    -2.1229     0.0547 C.ar    
   7 C7            -1.2802    -0.7454     0.0937 C.ar    
   8 O8             0.8642     2.1298     0.0771 O.2     
   9 O9            -1.3540     2.1055     0.1491 O.3     
  10 C10            0.0684    -4.2672    -0.0385 C.3     
  11 C11           -0.1113    -4.8188     1.3772 C.3     
  12 C12            0.0739    -6.3375     1.3602 C.3     
  13 C13           -0.1058    -6.8891     2.7759 C.3     
  14 O14           -0.9737    -4.7657    -0.8798 O.3     
  15 C15           -0.7107    -5.8996    -1.5820 C.ar    
  16 C16            0.5516    -6.4725    -1.5266 C.ar    
  17 C17            0.8192    -7.6242    -2.2398 C.ar    
  18 C18           -0.1750    -8.2088    -3.0122 C.ar    
  19 C19           -1.4379    -7.6352    -3.0674 C.ar    
  20 C20           -1.7062    -6.4867    -2.3494 C.ar    
  21 C21            1.2781   -10.0475    -3.7787 C.2     
  22 N22            1.1420   -11.0852    -4.5589 N.2     
  23 C23           -0.1102   -11.1193    -5.0382 C.2     
  24 C24           -0.7805   -10.0636    -4.5384 C.2     
  25 N25            0.0966    -9.3793    -3.7377 N.pl3   
  26 C26           -0.6701   -12.1590    -5.9744 C.3     
  27 F27            0.2848   -13.1596    -6.1850 F       
  28 F28           -1.8200   -12.7228    -5.4113 F       
  29 F29           -0.9949   -11.5598    -7.1962 F       
  30 C30           -1.3362     3.5570     0.1816 C.3     
  31 H31            2.0455    -0.0727    -0.0149 H       
  32 H32            2.1325    -2.5299    -0.0721 H       
  33 H33           -2.1280    -2.7041     0.0730 H       
  34 H34           -2.2376    -0.2481     0.1432 H       
  35 H35            1.0348    -4.5828    -0.4315 H       
  36 H36            0.6295    -4.3699     2.0389 H       
  37 H37           -1.1121    -4.5789     1.7364 H       
  38 H38           -0.6670    -6.7864     0.6986 H       
  39 H39            1.0746    -6.5775     1.0010 H       
  40 H40           -1.1066    -6.6492     3.1350 H       
  41 H41            0.0261    -7.9711     2.7637 H       
  42 H42            0.6350    -6.4402     3.4375 H       
  43 H43            1.3252    -6.0175    -0.9259 H       
  44 H44            1.8020    -8.0700    -2.1969 H       
  45 H45           -2.2117    -8.0897    -3.6682 H       
  46 H46           -2.6900    -6.0428    -2.3888 H       
  47 H47            2.1783    -9.7696    -3.2506 H       
  48 H48           -1.8111    -9.8053    -4.7320 H       
  49 H49           -0.7911     3.8941     1.0633 H       
  50 H50           -0.8452     3.9345    -0.7154 H       
  51 H51           -2.3588     3.9322     0.2212 H       
@<TRIPOS>BOND
   1    1    2 1
   2    1    8 2
   3    1    9 1
   4    2    3 ar
   5    2    7 ar
   6    3    4 ar
   7    3   31 1
   8    4    5 ar
   9    4   32 1
  10    5    6 ar
  11    5   10 1
  12    6    7 ar
  13    6   33 1
  14    7   34 1
  15    9   30 1
  16   10   11 1
  17   10   14 1
  18   10   35 1
  19   11   12 1
  20   11   36 1
  21   11   37 1
  22   12   13 1
  23   12   38 1
  24   12   39 1
  25   13   40 1
  26   13   41 1
  27   13   42 1
  28   14   15 1
  29   15   16 ar
  30   15   20 ar
  31   16   17 ar
  32   16   43 1
  33   17   18 ar
  34   17   44 1
  35   18   19 ar
  36   18   25 1
  37   19   20 ar
  38   19   45 1
  39   20   46 1
  40   21   22 2
  41   21   25 1
  42   21   47 1
  43   22   23 1
  44   23   24 2
  45   23   26 1
  46   24   25 1
  47   24   48 1
  48   26   27 1
  49   26   28 1
  50   26   29 1
  51   30   49 1
  52   30   50 1
  53   30   51 1

#	End of record

