#	Name: ASD00843192
#	Creating user name:	WinNT
#	Creation time:	15. 06. 2019 18:46

#	Modifying user name:	WinNT
#	Modification time:	15. 06. 2019 18:46

#	Program:	/corina/corina34_cracker 3.40 0067  02.08.2006

@<TRIPOS>MOLECULE
ASD00843192
  88   93    0    0    0
SMALL
NO_CHARGES


@<TRIPOS>ATOM
   1 F1            -0.1185    -3.1613     4.7121 F       
   2 N2            -0.0147     1.3153     0.0242 N.ar    
   3 C3             0.0025    -0.0070     0.0104 C.ar    
   4 C4             1.2069    -0.6991    -0.0071 C.ar    
   5 C5             2.3930     0.0137    -0.0099 C.ar    
   6 C6             2.3320     1.4006     0.0049 C.ar    
   7 C7             1.0996     2.0223     0.0219 C.ar    
   8 C8             1.2216    -2.2060    -0.0223 C.3     
   9 C9             0.4763    -2.7314    -1.2307 C.2     
  10 N10            2.5991    -2.7046    -0.0121 N.am    
  11 C11            3.4466    -2.3635    -1.0029 C.2     
  12 N12            4.7401    -2.7371    -0.9417 N.am    
  13 O13            3.0443    -1.7187    -1.9520 O.2     
  14 C14            5.6552    -2.4758    -2.0632 C.3     
  15 C15            6.9058    -1.7777    -1.5184 C.3     
  16 N16            7.4742    -2.5798    -0.4269 N.3     
  17 C17            6.5397    -2.6818     0.7019 C.3     
  18 C18            5.2755    -3.4114     0.2507 C.3     
  19 N19            8.7544    -2.0413     0.0035 N.3     
  20 C20            9.3230    -2.8438     1.0954 C.3     
  21 C21           10.7025    -2.2932     1.4647 C.3     
  22 N22           10.5744    -0.8842     1.8620 N.3     
  23 C23           10.0058    -0.0817     0.7700 C.3     
  24 C24            8.6263    -0.6323     0.4007 C.3     
  25 C25           11.8678    -0.3401     2.2968 C.3     
  26 O26            0.7574    -2.5313    -2.3935 O.2     
  27 N27           -0.5548    -3.4614    -0.7732 N.am    
  28 C28            0.4480    -2.7549     1.1545 C.ar    
  29 C29           -0.6000    -3.4954     0.6222 C.ar    
  30 C30            0.6118    -2.6409     2.5168 C.ar    
  31 C31           -0.2758    -3.2701     3.3747 C.ar    
  32 C32           -1.3259    -4.0121     2.8556 C.ar    
  33 C33           -1.4899    -4.1262     1.4885 C.ar    
  34 F34           -2.1926    -4.6264     3.6904 F       
  35 C35           -1.0191    -5.8487    -2.0614 C.ar    
  36 C36            0.1589    -6.0110    -2.7756 C.ar    
  37 C37           -1.6969    -6.9559    -1.5885 C.ar    
  38 C38           -1.2018    -8.2246    -1.8261 C.ar    
  39 C39           -0.0276    -8.3890    -2.5379 C.ar    
  40 C40            0.6535    -7.2854    -3.0132 C.ar    
  41 H41            0.3571    -9.3811    -2.7222 H       
  42 O42            0.8273    -4.9236    -3.2423 O.3     
  43 C43            2.0333    -5.1661    -3.9694 C.3     
  44 C44            2.6396    -3.8325    -4.4108 C.3     
  45 O45           -1.1673    -0.6942     0.0138 O.3     
  46 C46           -2.3715     0.0749     0.0325 C.3     
  47 C47           -3.5778    -0.8662     0.0336 C.3     
  48 F48           -3.5501    -1.6612    -1.1172 F       
  49 F49           -3.5297    -1.6848     1.1671 F       
  50 S50           -1.6466    -4.2317    -1.7514 S.o2    
  51 O51           -2.8276    -4.4008    -0.9794 O.2     
  52 O52           -1.6232    -3.5467    -2.9961 O.2     
  53 H53            3.3444    -0.4972    -0.0230 H       
  54 H54            3.2391     1.9868     0.0035 H       
  55 H55            1.0467     3.1009     0.0331 H       
  56 H56            2.9011    -3.2803     0.7078 H       
  57 H57            5.9371    -3.4181    -2.5329 H       
  58 H58            5.1650    -1.8317    -2.7933 H       
  59 H59            7.6418    -1.6754    -2.3159 H       
  60 H60            6.6368    -0.7906    -1.1424 H       
  61 H61            7.0101    -3.2351     1.5147 H       
  62 H62            6.2757    -1.6821     1.0470 H       
  63 H63            4.5346    -3.3887     1.0498 H       
  64 H64            5.5181    -4.4445     0.0018 H       
  65 H65            8.6666    -2.7927     1.9642 H       
  66 H66            9.4197    -3.8804     0.7727 H       
  67 H67           11.1137    -2.8689     2.2939 H       
  68 H68           11.3668    -2.3694     0.6039 H       
  69 H69            9.9091     0.9549     1.0927 H       
  70 H70           10.6622    -0.1328    -0.0987 H       
  71 H71            8.2151    -0.0566    -0.4285 H       
  72 H72            7.9620    -0.5561     1.2616 H       
  73 H73           12.5845    -0.4087     1.4783 H       
  74 H74           11.7444     0.7038     2.5851 H       
  75 H75           12.2343    -0.9117     3.1495 H       
  76 H76            1.4315    -2.0621     2.9162 H       
  77 H77           -2.3101    -4.7053     1.0907 H       
  78 H78           -2.6141    -6.8301    -1.0324 H       
  79 H79           -1.7327    -9.0887    -1.4550 H       
  80 H80            1.5701    -7.4144    -3.5696 H       
  81 H81            2.7422    -5.6941    -3.3317 H       
  82 H82            1.8124    -5.7731    -4.8474 H       
  83 H83            1.9307    -3.3044    -5.0486 H       
  84 H84            2.8605    -3.2255    -3.5329 H       
  85 H85            3.5595    -4.0174    -4.9655 H       
  86 H86           -2.3931     0.6943     0.9291 H       
  87 H87           -2.4091     0.7127    -0.8507 H       
  88 H88           -4.4964    -0.2795     0.0479 H       
@<TRIPOS>BOND
   1    1   31 1
   2    2    3 ar
   3    2    7 ar
   4    3    4 ar
   5    3   45 1
   6    4    5 ar
   7    4    8 1
   8    5    6 ar
   9    5   53 1
  10    6    7 ar
  11    6   54 1
  12    7   55 1
  13    8    9 1
  14    8   10 1
  15    8   28 1
  16    9   26 2
  17    9   27 am
  18   10   11 am
  19   10   56 1
  20   11   12 am
  21   11   13 2
  22   12   14 1
  23   12   18 1
  24   14   15 1
  25   14   57 1
  26   14   58 1
  27   15   16 1
  28   15   59 1
  29   15   60 1
  30   16   17 1
  31   16   19 1
  32   17   18 1
  33   17   61 1
  34   17   62 1
  35   18   63 1
  36   18   64 1
  37   19   20 1
  38   19   24 1
  39   20   21 1
  40   20   65 1
  41   20   66 1
  42   21   22 1
  43   21   67 1
  44   21   68 1
  45   22   23 1
  46   22   25 1
  47   23   24 1
  48   23   69 1
  49   23   70 1
  50   24   71 1
  51   24   72 1
  52   25   73 1
  53   25   74 1
  54   25   75 1
  55   27   50 am
  56   27   29 1
  57   28   29 ar
  58   28   30 ar
  59   29   33 ar
  60   30   31 ar
  61   30   76 1
  62   31   32 ar
  63   32   33 ar
  64   32   34 1
  65   33   77 1
  66   35   36 ar
  67   35   37 ar
  68   35   50 1
  69   36   42 1
  70   36   40 ar
  71   37   38 ar
  72   37   78 1
  73   38   39 ar
  74   38   79 1
  75   39   40 ar
  76   39   41 1
  77   40   80 1
  78   42   43 1
  79   43   44 1
  80   43   81 1
  81   43   82 1
  82   44   83 1
  83   44   84 1
  84   44   85 1
  85   45   46 1
  86   46   47 1
  87   46   86 1
  88   46   87 1
  89   47   48 1
  90   47   49 1
  91   47   88 1
  92   50   51 2
  93   50   52 2

#	End of record

