#	Name: ASD03540529
#	Creating user name:	WinNT
#	Creation time:	15. 06. 2019 20:43

#	Modifying user name:	WinNT
#	Modification time:	15. 06. 2019 20:43

#	Program:	/corina/corina34_cracker 3.40 0067  02.08.2006

@<TRIPOS>MOLECULE
ASD03540529
  49   52    0    0    0
SMALL
NO_CHARGES


@<TRIPOS>ATOM
   1 N1            -0.0161     1.3395     0.0094 N.am    
   2 C2             0.0021    -0.0041     0.0020 C.2     
   3 N3             1.1388    -0.7175    -0.0127 N.am    
   4 C4             2.3458    -0.1110    -0.0206 C.2     
   5 C5             2.3855     1.3632    -0.0131 C.ar    
   6 C6             3.5861     2.0598    -0.0208 C.ar    
   7 C7             3.5646     3.4571    -0.0136 C.ar    
   8 C8             2.3392     4.1404     0.0018 C.ar    
   9 C9             1.1598     3.4526     0.0099 C.ar    
  10 C10            1.1627     2.0627     0.0020 C.ar    
  11 O11           -1.0577    -0.5996     0.0094 O.2     
  12 O12            3.3720    -0.7630    -0.0331 O.2     
  13 C13            4.8256     4.2109    -0.0217 C.2     
  14 O14            5.8850     3.6204    -0.0346 O.2     
  15 C15            4.8028     5.7177    -0.0139 C.3     
  16 S16            6.5037     6.3482    -0.0267 S.3     
  17 C17            7.1559    10.3200    -0.0133 C.ar    
  18 C18            7.3751     8.9590    -0.0218 C.ar    
  19 C19            6.2786     8.0958    -0.0158 C.ar    
  20 C20            4.9992     8.6529    -0.0015 C.ar    
  21 C21            4.8665    10.0251     0.0062 C.ar    
  22 N22            5.9293    10.8081     0.0002 N.ar    
  23 C23           -1.2993     2.0463     0.0193 C.3     
  24 C24            1.0693    -2.1808    -0.0199 C.3     
  25 C25            1.0318    -2.6750    -1.4431 C.ar    
  26 C26            2.2104    -2.9583    -2.1076 C.ar    
  27 C27            2.1761    -3.4116    -3.4131 C.ar    
  28 C28            0.9631    -3.5818    -4.0539 C.ar    
  29 C29           -0.2155    -3.2993    -3.3891 C.ar    
  30 C30           -0.1813    -2.8503    -2.0822 C.ar    
  31 H31            4.5260     1.5280    -0.0320 H       
  32 H32            2.3288     5.2203     0.0077 H       
  33 H33            0.2228     3.9896     0.0221 H       
  34 H34            4.2752     6.0776    -0.8972 H       
  35 H35            4.2919     6.0687     0.8827 H       
  36 H36            7.9984    10.9957    -0.0133 H       
  37 H37            8.3811     8.5663    -0.0332 H       
  38 H38            4.1255     8.0181     0.0032 H       
  39 H39            3.8802    10.4651     0.0174 H       
  40 H40           -2.1134     1.3214     0.0192 H       
  41 H41           -1.3655     2.6668     0.9130 H       
  42 H42           -1.3739     2.6765    -0.8669 H       
  43 H43            1.9459    -2.5887     0.4834 H       
  44 H44            0.1680    -2.5043     0.5009 H       
  45 H45            3.1580    -2.8253    -1.6069 H       
  46 H46            3.0969    -3.6323    -3.9325 H       
  47 H47            0.9363    -3.9352    -5.0741 H       
  48 H48           -1.1631    -3.4321    -3.8899 H       
  49 H49           -1.1023    -2.6331    -1.5616 H       
@<TRIPOS>BOND
   1    1    2 am
   2    1   10 1
   3    1   23 1
   4    2    3 am
   5    2   11 2
   6    3    4 am
   7    3   24 1
   8    4    5 1
   9    4   12 2
  10    5    6 ar
  11    5   10 ar
  12    6    7 ar
  13    6   31 1
  14    7    8 ar
  15    7   13 1
  16    8    9 ar
  17    8   32 1
  18    9   10 ar
  19    9   33 1
  20   13   14 2
  21   13   15 1
  22   15   16 1
  23   15   34 1
  24   15   35 1
  25   16   19 1
  26   17   18 ar
  27   17   22 ar
  28   17   36 1
  29   18   19 ar
  30   18   37 1
  31   19   20 ar
  32   20   21 ar
  33   20   38 1
  34   21   22 ar
  35   21   39 1
  36   23   40 1
  37   23   41 1
  38   23   42 1
  39   24   25 1
  40   24   43 1
  41   24   44 1
  42   25   26 ar
  43   25   30 ar
  44   26   27 ar
  45   26   45 1
  46   27   28 ar
  47   27   46 1
  48   28   29 ar
  49   28   47 1
  50   29   30 ar
  51   29   48 1
  52   30   49 1

#	End of record

