#	Name: ASD01881657
#	Creating user name:	WinNT
#	Creation time:	15. 06. 2019 19:43

#	Modifying user name:	WinNT
#	Modification time:	15. 06. 2019 19:43

#	Program:	/corina/corina34_cracker 3.40 0067  02.08.2006

@<TRIPOS>MOLECULE
ASD01881657
  33   34    0    0    0
SMALL
NO_CHARGES


@<TRIPOS>ATOM
   1 C1             2.7770     1.0915    -0.0377 C.2     
   2 N2             2.5516    -0.2061    -0.2738 N.am    
   3 C3             1.2634    -0.4363    -0.5958 C.2     
   4 C4             0.5826     0.9175    -0.5552 C.3     
   5 N5             1.6682     1.8398    -0.1797 N.am    
   6 O6             3.8613     1.5429     0.2750 O.2     
   7 O7             0.7550    -1.5039    -0.8632 O.2     
   8 C8             3.5785    -1.2478    -0.1929 C.3     
   9 C9             3.6240    -1.8098     1.2294 C.3     
  10 C10            1.5609     3.2893     0.0041 C.3     
  11 C11            0.5649     3.5887     1.1262 C.3     
  12 C12            1.0813     3.9238    -1.2759 C.ar    
  13 C13            1.8163     4.9371    -1.8625 C.ar    
  14 C14            1.3771     5.5191    -3.0367 C.ar    
  15 C15            0.2018     5.0874    -3.6249 C.ar    
  16 C16           -0.5333     4.0735    -3.0376 C.ar    
  17 C17           -0.0905     3.4885    -1.8662 C.ar    
  18 Br18          -0.4000     5.8837    -5.2310 Br      
  19 H19            0.1825     1.1751    -1.5358 H       
  20 H20           -0.2064     0.9275     0.1967 H       
  21 H21            3.3396    -2.0486    -0.8926 H       
  22 H22            4.5492    -0.8215    -0.4463 H       
  23 H23            3.8630    -1.0089     1.9291 H       
  24 H24            2.6533    -2.2360     1.4828 H       
  25 H25            4.3880    -2.5849     1.2896 H       
  26 H26            2.5376     3.6954     0.2673 H       
  27 H27            0.9117     3.1298     2.0520 H       
  28 H28            0.4850     4.6672     1.2630 H       
  29 H29           -0.4118     3.1826     0.8630 H       
  30 H30            2.7337     5.2743    -1.4030 H       
  31 H31            1.9511     6.3110    -3.4947 H       
  32 H32           -1.4511     3.7364    -3.4963 H       
  33 H33           -0.6622     2.6940    -1.4097 H       
@<TRIPOS>BOND
   1    1    2 am
   2    1    5 am
   3    1    6 2
   4    2    3 am
   5    2    8 1
   6    3    4 1
   7    3    7 2
   8    4    5 1
   9    4   19 1
  10    4   20 1
  11    5   10 1
  12    8    9 1
  13    8   21 1
  14    8   22 1
  15    9   23 1
  16    9   24 1
  17    9   25 1
  18   10   11 1
  19   10   12 1
  20   10   26 1
  21   11   27 1
  22   11   28 1
  23   11   29 1
  24   12   13 ar
  25   12   17 ar
  26   13   14 ar
  27   13   30 1
  28   14   15 ar
  29   14   31 1
  30   15   16 ar
  31   15   18 1
  32   16   17 ar
  33   16   32 1
  34   17   33 1

#	End of record

