#	Name: ASD03330935
#	Creating user name:	WinNT
#	Creation time:	15. 06. 2019 20:38

#	Modifying user name:	WinNT
#	Modification time:	15. 06. 2019 20:38

#	Program:	/corina/corina34_cracker 3.40 0067  02.08.2006

@<TRIPOS>MOLECULE
ASD03330935
  78   81    0    0    0
SMALL
NO_CHARGES


@<TRIPOS>ATOM
   1 N1             0.4387     0.9285    -0.2642 N.pl3   
   2 C2             0.3259    -0.4194    -0.2058 C.2     
   3 C3             1.4712    -1.3975    -0.1853 C.3     
   4 N4             2.4680    -0.9536     0.8014 N.3     
   5 C5             3.4458    -0.0481     0.1948 C.3     
   6 C6             2.7962     0.8056    -0.8909 C.3     
   7 C7             1.6986     1.6783    -0.2769 C.3     
   8 C8            -0.8151     1.4456    -0.2963 C.2     
   9 N9            -1.6767     0.4698    -0.2420 N.2     
  10 C10           -1.0032    -0.7090    -0.1817 C.2     
  11 C11           -1.6020    -2.0529    -0.1055 C.2     
  12 O12           -0.8868    -3.0355    -0.0571 O.2     
  13 N13           -2.9423    -2.1935    -0.0894 N.am    
  14 N14           -2.9466     5.0970    -0.5081 N.am    
  15 C15           -2.2867     4.6686    -1.7490 C.3     
  16 C16           -1.9716     3.1728    -1.6488 C.3     
  17 C17           -1.1560     2.9111    -0.3805 C.3     
  18 C18           -1.9752     3.3154     0.8473 C.3     
  19 C19           -2.2904     4.8129     0.7754 C.3     
  20 S20           -4.3990     5.8910    -0.5556 S.o2    
  21 O21           -4.4927     6.6289     0.6552 O.2     
  22 O22           -4.4861     6.4916    -1.8405 O.2     
  23 C23           -5.6649     4.6671    -0.4917 C.ar    
  24 C24           -6.1646     4.2527     0.7288 C.ar    
  25 C25           -7.1577     3.2924     0.7790 C.ar    
  26 C26           -7.6514     2.7469    -0.3913 C.ar    
  27 C27           -7.1523     3.1619    -1.6118 C.ar    
  28 C28           -6.1623     4.1253    -1.6621 C.ar    
  29 C29            3.1336    -2.1021     1.4306 C.3     
  30 C30           -4.9222    -3.4974    -0.6080 C.2     
  31 C31           -3.5378    -3.5299    -0.0137 C.3     
  32 C32           -3.6211    -3.9689     1.4496 C.3     
  33 C33           -4.3937    -2.9210     2.2533 C.3     
  34 O34           -5.5703    -2.4726    -0.5800 O.2     
  35 N35           -5.4403    -4.6072    -1.1705 N.am    
  36 C36           -6.8249    -4.6077    -1.6493 C.3     
  37 C37           -4.3441    -5.3144     1.5381 C.3     
  38 C38           -2.2088    -4.1104     2.0209 C.3     
  39 H39            1.1016    -2.3854     0.0894 H       
  40 H40            1.9305    -1.4411    -1.1728 H       
  41 H41            3.8568     0.6040     0.9655 H       
  42 H42            4.2526    -0.6344    -0.2451 H       
  43 H43            3.5513     1.4432    -1.3507 H       
  44 H44            2.3605     0.1562    -1.6502 H       
  45 H45            1.5777     2.5837    -0.8717 H       
  46 H46            1.9737     1.9456     0.7434 H       
  47 H47           -3.5127    -1.4099    -0.1280 H       
  48 H48           -2.9497     4.8465    -2.5956 H       
  49 H49           -1.3613     5.2288    -1.8829 H       
  50 H50           -2.9022     2.6070    -1.6061 H       
  51 H51           -1.3966     2.8629    -2.5215 H       
  52 H52           -0.2371     3.4965    -0.4125 H       
  53 H53           -2.9059     2.7483     0.8665 H       
  54 H54           -1.4029     3.1071     1.7512 H       
  55 H55           -1.3653     5.3848     0.8474 H       
  56 H56           -2.9559     5.0859     1.5944 H       
  57 H57           -5.7789     4.6789     1.6431 H       
  58 H58           -7.5477     2.9682     1.7325 H       
  59 H59           -8.4268     1.9961    -0.3521 H       
  60 H60           -7.5378     2.7354    -2.5261 H       
  61 H61           -5.7749     4.4522    -2.6158 H       
  62 H62            3.6377    -2.6934     0.6662 H       
  63 H63            3.8653    -1.7456     2.1556 H       
  64 H64            2.3915    -2.7195     1.9369 H       
  65 H65           -2.9200    -4.2350    -0.5699 H       
  66 H66           -5.3998    -2.8202     1.8463 H       
  67 H67           -4.4530    -3.2338     3.2958 H       
  68 H68           -3.8786    -1.9625     2.1903 H       
  69 H69           -4.8964    -5.4055    -1.2585 H       
  70 H70           -7.0637    -5.5847    -2.0695 H       
  71 H71           -7.4969    -4.3957    -0.8177 H       
  72 H72           -6.9442    -3.8431    -2.4169 H       
  73 H73           -3.7679    -6.0721     1.0069 H       
  74 H74           -4.4472    -5.6034     2.5840 H       
  75 H75           -5.3321    -5.2263     1.0863 H       
  76 H76           -1.6937    -3.1518     1.9579 H       
  77 H77           -2.2681    -4.4231     3.0633 H       
  78 H78           -1.6583    -4.8569     1.4483 H       
@<TRIPOS>BOND
   1    1    2 1
   2    1    7 1
   3    1    8 1
   4    2    3 1
   5    2   10 2
   6    3    4 1
   7    3   39 1
   8    3   40 1
   9    4    5 1
  10    4   29 1
  11    5    6 1
  12    5   41 1
  13    5   42 1
  14    6    7 1
  15    6   43 1
  16    6   44 1
  17    7   45 1
  18    7   46 1
  19    8    9 2
  20    8   17 1
  21    9   10 1
  22   10   11 1
  23   11   12 2
  24   11   13 am
  25   13   31 1
  26   13   47 1
  27   14   15 1
  28   14   19 1
  29   14   20 am
  30   15   16 1
  31   15   48 1
  32   15   49 1
  33   16   17 1
  34   16   50 1
  35   16   51 1
  36   17   18 1
  37   17   52 1
  38   18   19 1
  39   18   53 1
  40   18   54 1
  41   19   55 1
  42   19   56 1
  43   20   21 2
  44   20   22 2
  45   20   23 1
  46   23   24 ar
  47   23   28 ar
  48   24   25 ar
  49   24   57 1
  50   25   26 ar
  51   25   58 1
  52   26   27 ar
  53   26   59 1
  54   27   28 ar
  55   27   60 1
  56   28   61 1
  57   29   62 1
  58   29   63 1
  59   29   64 1
  60   30   34 2
  61   30   35 am
  62   30   31 1
  63   31   32 1
  64   31   65 1
  65   32   33 1
  66   32   37 1
  67   32   38 1
  68   33   66 1
  69   33   67 1
  70   33   68 1
  71   35   36 1
  72   35   69 1
  73   36   70 1
  74   36   71 1
  75   36   72 1
  76   37   73 1
  77   37   74 1
  78   37   75 1
  79   38   76 1
  80   38   77 1
  81   38   78 1

#	End of record

