#	Name: ASD01940094
#	Creating user name:	WinNT
#	Creation time:	15. 06. 2019 20:11

#	Modifying user name:	WinNT
#	Modification time:	15. 06. 2019 20:11

#	Program:	/corina/corina34_cracker 3.40 0067  02.08.2006

@<TRIPOS>MOLECULE
ASD01940094
  35   36    0    0    0
SMALL
NO_CHARGES


@<TRIPOS>ATOM
   1 F1             1.7604     1.3581     2.1257 F       
   2 C2             0.9394     2.0276     1.2872 C.ar    
   3 C3             1.2996     2.2070    -0.0418 C.ar    
   4 C4             0.4492     2.8985    -0.9030 C.ar    
   5 C5            -0.7522     3.4039    -0.4291 C.ar    
   6 C6            -1.1056     3.2222     0.8953 C.ar    
   7 C7            -0.2654     2.5308     1.7514 C.ar    
   8 N8             2.5151     1.6946    -0.5158 N.pl3   
   9 N9             0.8078     3.0829    -2.2450 N.am    
  10 C10            2.5844     0.3794    -0.9823 C.ar    
  11 C11            1.4361    -0.3994    -1.0421 C.ar    
  12 C12            1.5081    -1.6994    -1.5038 C.ar    
  13 C13            2.7215    -2.2262    -1.9059 C.ar    
  14 C14            3.8679    -1.4543    -1.8476 C.ar    
  15 C15            3.8024    -0.1512    -1.3932 C.ar    
  16 Cl16           5.2414     0.8173    -1.3203 Cl      
  17 F17           -0.6182     2.3513     3.0430 F       
  18 S18            0.4033     4.4868    -3.0247 S.o2    
  19 O19            0.9407     4.3297    -4.3307 O.2     
  20 O20           -0.9972     4.6110    -2.8189 O.2     
  21 C21            2.7955    -3.6450    -2.4084 C.3     
  22 F22            2.5951    -3.6604    -3.7929 F       
  23 F23            4.0545    -4.1792    -2.1135 F       
  24 F24            1.8057    -4.4126    -1.7853 F       
  25 C25            1.2968     5.7806    -2.1201 C.3     
  26 Cl26           0.8348     7.3973    -2.7707 Cl      
  27 Cl27           0.8718     5.6932    -0.3701 Cl      
  28 H28           -1.4121     3.9402    -1.0949 H       
  29 H29           -2.0417     3.6168     1.2619 H       
  30 H30            3.3082     2.2532    -0.5200 H       
  31 H31            1.2929     2.3883    -2.7173 H       
  32 H32            0.4879     0.0108    -0.7277 H       
  33 H33            0.6153    -2.3053    -1.5504 H       
  34 H34            4.8142    -1.8692    -2.1618 H       
  35 H35            2.3701     5.6334    -2.2411 H       
@<TRIPOS>BOND
   1    1    2 1
   2    2    3 ar
   3    2    7 ar
   4    3    4 ar
   5    3    8 1
   6    4    5 ar
   7    4    9 1
   8    5    6 ar
   9    5   28 1
  10    6    7 ar
  11    6   29 1
  12    7   17 1
  13    8   10 1
  14    8   30 1
  15    9   18 am
  16    9   31 1
  17   10   11 ar
  18   10   15 ar
  19   11   12 ar
  20   11   32 1
  21   12   13 ar
  22   12   33 1
  23   13   14 ar
  24   13   21 1
  25   14   15 ar
  26   14   34 1
  27   15   16 1
  28   18   19 2
  29   18   20 2
  30   18   25 1
  31   21   22 1
  32   21   23 1
  33   21   24 1
  34   25   26 1
  35   25   27 1
  36   25   35 1

#	End of record

