#	Name: ASD00840964
#	Creating user name:	WinNT
#	Creation time:	15. 06. 2019 18:40

#	Modifying user name:	WinNT
#	Modification time:	15. 06. 2019 18:40

#	Program:	/corina/corina34_cracker 3.40 0067  02.08.2006

@<TRIPOS>MOLECULE
ASD00840964
 101  106    0    0    0
SMALL
NO_CHARGES


@<TRIPOS>ATOM
   1 F1             6.0041    -1.9453    -2.0998 F       
   2 N2             0.9757     1.4238    -0.8203 N.ar    
   3 C3             1.2527     0.1335    -0.9062 C.ar    
   4 C4             1.1969    -0.6789     0.2193 C.ar    
   5 C5             0.8468    -0.1204     1.4360 C.ar    
   6 C6             0.5635     1.2378     1.4840 C.ar    
   7 C7             0.6389     1.9849     0.3256 C.ar    
   8 C8             1.5130    -2.1488     0.1165 C.3     
   9 C9             1.2571    -2.8400     1.4388 C.2     
  10 C10            0.6862    -2.7969    -0.9959 C.3     
  11 C11           -0.7757    -2.5118    -0.7663 C.2     
  12 N12           -1.7032    -3.0467    -1.5848 N.am    
  13 O13           -1.1175    -1.8009     0.1550 O.2     
  14 C14           -3.1208    -2.6858    -1.4470 C.3     
  15 C15           -3.9451    -3.9695    -1.3075 C.3     
  16 C16           -3.6442    -4.8951    -2.4884 C.3     
  17 C17           -2.1605    -5.2704    -2.4794 C.3     
  18 C18           -1.3153    -3.9972    -2.6359 C.3     
  19 C19           -4.4916    -6.1636    -2.3707 C.3     
  20 C20           -5.9764    -5.7898    -2.3813 C.3     
  21 C21           -6.8191    -7.0660    -2.3247 C.3     
  22 N22           -6.5015    -7.9154    -3.4797 N.3     
  23 C23           -5.0916    -8.3259    -3.4653 C.3     
  24 C24           -4.1974    -7.0873    -3.5559 C.3     
  25 C25           -7.3896    -9.0843    -3.5336 C.3     
  26 O26            0.1935    -2.9187     2.0165 O.2     
  27 N27            2.4294    -3.3502     1.8520 N.am    
  28 C28            2.9899    -2.3570    -0.1278 C.ar    
  29 C29            3.4666    -3.0845     0.9555 C.ar    
  30 C30            3.8323    -1.9753    -1.1479 C.ar    
  31 C31            5.1741    -2.3174    -1.1008 C.ar    
  32 C32            5.6620    -3.0434    -0.0247 C.ar    
  33 C33            4.8163    -3.4261     0.9986 C.ar    
  34 F34            6.9700    -3.3779     0.0231 F       
  35 C35            2.3465    -5.8968     2.8925 C.ar    
  36 C36            1.0917    -6.3219     2.4802 C.ar    
  37 C37            3.3817    -6.8050     3.0076 C.ar    
  38 C38            3.1702    -8.1380     2.7123 C.ar    
  39 C39            1.9169    -8.5682     2.2996 C.ar    
  40 C40            0.8768    -7.6592     2.1837 C.ar    
  41 O41            1.7094    -9.8796     2.0097 O.3     
  42 O42            0.0740    -5.4283     2.3676 O.3     
  43 C43            2.8260   -10.7599     2.1516 C.3     
  44 C44           -1.1907    -5.9362     1.9379 C.3     
  45 C45           -2.2040    -4.7917     1.8713 C.3     
  46 C46           -7.1130    -9.8764    -4.8130 C.3     
  47 C47           -7.1339    -9.9756    -2.3166 C.3     
  48 S48            2.6222    -4.1963     3.2625 S.o2    
  49 O49            3.9936    -4.0798     3.6160 O.2     
  50 O50            1.5619    -3.7950     4.1192 O.2     
  51 O51            1.5943    -0.4020    -2.1051 O.3     
  52 C52            2.0554    -0.2794    -4.4743 C.3     
  53 C53            1.5252     0.4589    -3.2436 C.3     
  54 H54            0.7948    -0.7273     2.3278 H       
  55 H55            0.2867     1.7049     2.4176 H       
  56 H56            0.4198     3.0419     0.3577 H       
  57 H57            0.9893    -2.3874    -1.9595 H       
  58 H58            0.8514    -3.8743    -0.9907 H       
  59 H59           -3.2557    -2.0667    -0.5601 H       
  60 H60           -3.4458    -2.1371    -2.3310 H       
  61 H61           -3.6825    -4.4710    -0.3760 H       
  62 H62           -5.0065    -3.7213    -1.3009 H       
  63 H63           -3.8838    -4.3838    -3.4208 H       
  64 H64           -1.9148    -5.7597    -1.5370 H       
  65 H65           -1.9517    -5.9483    -3.3071 H       
  66 H66           -1.4943    -3.5581    -3.6173 H       
  67 H67           -0.2589    -4.2448    -2.5312 H       
  68 H68           -4.2517    -6.6767    -1.4394 H       
  69 H69           -6.2010    -5.1667    -1.5156 H       
  70 H70           -6.2072    -5.2415    -3.2947 H       
  71 H71           -6.5979    -7.6067    -1.4045 H       
  72 H72           -7.8769    -6.8040    -2.3465 H       
  73 H73           -4.8786    -8.8607    -2.5397 H       
  74 H74           -4.8948    -8.9790    -4.3155 H       
  75 H75           -4.4002    -6.5595    -4.4878 H       
  76 H76           -3.1510    -7.3912    -3.5294 H       
  77 H77           -8.4278    -8.7523    -3.5291 H       
  78 H78            3.4474    -1.4103    -1.9839 H       
  79 H79            5.2027    -3.9911     1.8340 H       
  80 H80            4.3577    -6.4722     3.3287 H       
  81 H81            3.9810    -8.8458     2.8024 H       
  82 H82           -0.0993    -7.9921     1.8630 H       
  83 H83            2.5247   -11.7741     1.8897 H       
  84 H84            3.6296   -10.4372     1.4896 H       
  85 H85            3.1755   -10.7399     3.1839 H       
  86 H86           -1.0852    -6.3859     0.9506 H       
  87 H87           -1.5390    -6.6892     2.6448 H       
  88 H88           -2.3095    -4.3420     2.8586 H       
  89 H89           -1.8556    -4.0387     1.1644 H       
  90 H90           -3.1686    -5.1791     1.5436 H       
  91 H91           -6.0748   -10.2084    -4.8175 H       
  92 H92           -7.7720   -10.7437    -4.8530 H       
  93 H93           -7.2951    -9.2414    -5.6800 H       
  94 H94           -7.3310    -9.4113    -1.4051 H       
  95 H95           -7.7929   -10.8429    -2.3566 H       
  96 H96           -6.0957   -10.3076    -2.3211 H       
  97 H97            3.0602    -0.6495    -4.2710 H       
  98 H98            1.3990    -1.1183    -4.7055 H       
  99 H99            2.0847     0.4038    -5.3232 H       
 100 H100           0.4896     0.7530    -3.4144 H       
 101 H101           2.1303     1.3476    -3.0643 H       
@<TRIPOS>BOND
   1    1   31 1
   2    2    3 ar
   3    2    7 ar
   4    3    4 ar
   5    3   51 1
   6    4    5 ar
   7    4    8 1
   8    5    6 ar
   9    5   54 1
  10    6    7 ar
  11    6   55 1
  12    7   56 1
  13    8    9 1
  14    8   10 1
  15    8   28 1
  16    9   26 2
  17    9   27 am
  18   10   11 1
  19   10   57 1
  20   10   58 1
  21   11   12 am
  22   11   13 2
  23   12   14 1
  24   12   18 1
  25   14   15 1
  26   14   59 1
  27   14   60 1
  28   15   16 1
  29   15   61 1
  30   15   62 1
  31   16   17 1
  32   16   19 1
  33   16   63 1
  34   17   18 1
  35   17   64 1
  36   17   65 1
  37   18   66 1
  38   18   67 1
  39   19   20 1
  40   19   24 1
  41   19   68 1
  42   20   21 1
  43   20   69 1
  44   20   70 1
  45   21   22 1
  46   21   71 1
  47   21   72 1
  48   22   23 1
  49   22   25 1
  50   23   24 1
  51   23   73 1
  52   23   74 1
  53   24   75 1
  54   24   76 1
  55   25   46 1
  56   25   47 1
  57   25   77 1
  58   27   48 am
  59   27   29 1
  60   28   29 ar
  61   28   30 ar
  62   29   33 ar
  63   30   31 ar
  64   30   78 1
  65   31   32 ar
  66   32   33 ar
  67   32   34 1
  68   33   79 1
  69   35   36 ar
  70   35   37 ar
  71   35   48 1
  72   36   42 1
  73   36   40 ar
  74   37   38 ar
  75   37   80 1
  76   38   39 ar
  77   38   81 1
  78   39   40 ar
  79   39   41 1
  80   40   82 1
  81   41   43 1
  82   42   44 1
  83   43   83 1
  84   43   84 1
  85   43   85 1
  86   44   45 1
  87   44   86 1
  88   44   87 1
  89   45   88 1
  90   45   89 1
  91   45   90 1
  92   46   91 1
  93   46   92 1
  94   46   93 1
  95   47   94 1
  96   47   95 1
  97   47   96 1
  98   48   49 2
  99   48   50 2
 100   51   53 1
 101   52   53 1
 102   52   97 1
 103   52   98 1
 104   52   99 1
 105   53  100 1
 106   53  101 1

#	End of record

