#	Name: ASD04230114
#	Creating user name:	WinNT
#	Creation time:	15. 06. 2019 20:48

#	Modifying user name:	WinNT
#	Modification time:	15. 06. 2019 20:48

#	Program:	/corina/corina34_cracker 3.40 0067  02.08.2006

@<TRIPOS>MOLECULE
ASD04230114
  45   48    0    0    0
SMALL
NO_CHARGES


@<TRIPOS>ATOM
   1 C1             1.5360     4.6862     1.7199 C.ar    
   2 C2             2.5439     5.3840     2.3696 C.ar    
   3 C3             3.8005     4.8590     2.4681 C.ar    
   4 C4             4.0825     3.6081     1.9003 C.ar    
   5 C5             3.0564     2.8818     1.2692 C.ar    
   6 C6             1.7832     3.4397     1.1726 C.ar    
   7 C7             5.3934     3.0678     1.9619 C.2     
   8 C8             5.6628     1.9284     1.2155 C.2     
   9 C9             4.5671     1.3877     0.3904 C.2     
  10 O10            3.2979     1.6422     0.7793 O.3     
  11 C11            6.9879     1.2871     1.2463 C.2     
  12 N12            7.2188     0.1818     0.5104 N.am    
  13 O13            7.8740     1.7548     1.9358 O.2     
  14 C14            8.5059    -0.3623     0.4509 C.ar    
  15 C15            8.6754    -1.7390     0.3687 C.ar    
  16 C16            9.9458    -2.2801     0.3092 C.ar    
  17 C17           11.0532    -1.4562     0.3316 C.ar    
  18 C18           10.8926    -0.0740     0.4144 C.ar    
  19 C19            9.6135     0.4724     0.4681 C.ar    
  20 C20           12.0822     0.8129     0.4395 C.ar    
  21 O21            4.7981     0.7334    -0.6092 O.2     
  22 O22            0.7869     2.7610     0.5436 O.3     
  23 C23           11.9320     2.1955     0.5221 C.ar    
  24 N24           12.9850     2.9867     0.5442 N.ar    
  25 C25           14.2141     2.5128     0.4904 C.ar    
  26 C26           14.4497     1.1472     0.4073 C.ar    
  27 C27           13.3697     0.2740     0.3865 C.ar    
  28 O28           15.7212     0.6703     0.3519 O.3     
  29 C29           16.7770     1.6329     0.3833 C.3     
  30 H30            0.5488     5.1178     1.6445 H       
  31 H31            2.3328     6.3514     2.8009 H       
  32 H32            4.5764     5.4065     2.9824 H       
  33 H33            6.1576     3.5287     2.5701 H       
  34 H34            6.4924    -0.2364     0.0222 H       
  35 H35            7.8122    -2.3878     0.3516 H       
  36 H36           10.0724    -3.3507     0.2454 H       
  37 H37           12.0443    -1.8827     0.2853 H       
  38 H38            9.4841     1.5428     0.5319 H       
  39 H39            0.2742     2.1849     1.1270 H       
  40 H40           10.9414     2.6233     0.5681 H       
  41 H41           15.0497     3.1967     0.5108 H       
  42 H42           13.5214    -0.7934     0.3225 H       
  43 H43           16.6796     2.3069    -0.4677 H       
  44 H44           16.7190     2.2057     1.3089 H       
  45 H45           17.7376     1.1203     0.3328 H       
@<TRIPOS>BOND
   1    1    2 ar
   2    1    6 ar
   3    1   30 1
   4    2    3 ar
   5    2   31 1
   6    3    4 ar
   7    3   32 1
   8    4    5 ar
   9    4    7 1
  10    5    6 ar
  11    5   10 1
  12    6   22 1
  13    7    8 2
  14    7   33 1
  15    8    9 1
  16    8   11 1
  17    9   10 1
  18    9   21 2
  19   11   12 am
  20   11   13 2
  21   12   14 1
  22   12   34 1
  23   14   15 ar
  24   14   19 ar
  25   15   16 ar
  26   15   35 1
  27   16   17 ar
  28   16   36 1
  29   17   18 ar
  30   17   37 1
  31   18   19 ar
  32   18   20 1
  33   19   38 1
  34   20   23 ar
  35   20   27 ar
  36   22   39 1
  37   23   24 ar
  38   23   40 1
  39   24   25 ar
  40   25   26 ar
  41   25   41 1
  42   26   27 ar
  43   26   28 1
  44   27   42 1
  45   28   29 1
  46   29   43 1
  47   29   44 1
  48   29   45 1

#	End of record

