#	Name: ASD03330154
#	Creating user name:	WinNT
#	Creation time:	15. 06. 2019 20:36

#	Modifying user name:	WinNT
#	Modification time:	15. 06. 2019 20:36

#	Program:	/corina/corina34_cracker 3.40 0067  02.08.2006

@<TRIPOS>MOLECULE
ASD03330154
  74   76    0    0    0
SMALL
NO_CHARGES


@<TRIPOS>ATOM
   1 N1            -0.6437     1.4334    -0.0676 N.am    
   2 C2            -0.6389    -0.0320     0.0386 C.3     
   3 C3            -0.7559    -0.6286    -1.3675 C.3     
   4 C4             0.3548    -0.0590    -2.2531 C.3     
   5 C5             0.1974     1.4597    -2.3581 C.3     
   6 C6             0.3251     2.0800    -0.9633 C.3     
   7 C7             1.6960    -0.3840    -1.6476 C.2     
   8 O8             2.2846     0.4509    -0.9939 O.2     
   9 N9             2.2414    -1.6025    -1.8327 N.am    
  10 N10            0.2659    -0.6541    -3.5932 N.3     
  11 C11            1.2971    -0.1039    -4.4830 C.3     
  12 C12            1.1377    -0.7046    -5.8811 C.3     
  13 C13            2.2118    -0.1315    -6.8079 C.3     
  14 F14            3.4785    -0.4486    -6.3057 F       
  15 F15            2.0660    -0.6808    -8.0863 F       
  16 F16            2.0729     1.2587    -6.8790 F       
  17 C17           -1.5237     2.1703     0.6388 C.2     
  18 O18           -2.3798     1.6204     1.3069 O.2     
  19 C19           -1.4499     3.6331     0.6026 C.2     
  20 C20           -2.4947     4.4746     0.8421 C.2     
  21 C21           -2.1867     5.8161     0.7519 C.2     
  22 C22           -0.8727     6.0753     0.4345 C.2     
  23 S23            0.0011     4.5608     0.2514 S.3     
  24 C24           -3.1862     6.8877     0.9769 C.ar    
  25 C25           -4.3669     6.9087     0.2356 C.ar    
  26 C26           -5.2948     7.9068     0.4477 C.ar    
  27 C27           -5.0544     8.8896     1.3981 C.ar    
  28 C28           -3.8798     8.8718     2.1376 C.ar    
  29 C29           -2.9502     7.8734     1.9344 C.ar    
  30 O30           -5.9709     9.8717     1.6047 O.3     
  31 C31           -5.6597    10.8511     2.5977 C.3     
  32 C32           -6.8004    11.8667     2.6874 C.3     
  33 C33           -6.4672    12.9153     3.7506 C.3     
  34 O34           -7.5326    13.8639     3.8344 O.3     
  35 C35           -0.2856     7.4196     0.2775 C.ar    
  36 C36            0.8933     7.7539     0.9514 C.ar    
  37 C37            1.4371     9.0130     0.8001 C.ar    
  38 C38            0.8171     9.9447    -0.0175 C.ar    
  39 C39           -0.3516     9.6185    -0.6878 C.ar    
  40 C40           -0.9018     8.3618    -0.5494 C.ar    
  41 F41            1.3537    11.1762    -0.1615 F       
  42 Cl42           1.6704     6.5879     1.9762 Cl      
  43 H43            0.2922    -0.3619     0.4992 H       
  44 H44           -1.4843    -0.3571     0.6450 H       
  45 H45           -0.6570    -1.7127    -1.3121 H       
  46 H46           -1.7267    -0.3726    -1.7918 H       
  47 H47            0.9747     1.8619    -3.0078 H       
  48 H48           -0.7825     1.6960    -2.7730 H       
  49 H49            0.1158     3.1483    -1.0179 H       
  50 H50            1.3349     1.9223    -0.5843 H       
  51 H51            1.8087    -2.2438    -2.4179 H       
  52 H52            3.0667    -1.8382    -1.3807 H       
  53 H53            0.3275    -1.6602    -3.5469 H       
  54 H54            1.1889     0.9793    -4.5384 H       
  55 H55            2.2840    -0.3510    -4.0918 H       
  56 H56            1.2459    -1.7878    -5.8257 H       
  57 H57            0.1508    -0.4575    -6.2723 H       
  58 H58           -3.4857     4.1192     1.0831 H       
  59 H59           -4.5544     6.1446    -0.5042 H       
  60 H60           -6.2094     7.9239    -0.1264 H       
  61 H61           -3.6956     9.6382     2.8759 H       
  62 H62           -2.0385     7.8576     2.5132 H       
  63 H63           -5.5321    10.3617     3.5632 H       
  64 H64           -4.7371    11.3639     2.3256 H       
  65 H65           -6.9279    12.3561     1.7219 H       
  66 H66           -7.7229    11.3539     2.9595 H       
  67 H67           -6.3396    12.4259     4.7162 H       
  68 H68           -5.5446    13.4281     3.4785 H       
  69 H69           -7.3889    14.5598     4.4903 H       
  70 H70            2.3473     9.2731     1.3200 H       
  71 H71           -0.8301    10.3491    -1.3231 H       
  72 H72           -1.8098     8.1077    -1.0761 H       
  73 Cl73           8.4785    19.5598     9.7162 Cl      
  74 H74            8.4785    20.9298     9.7162 H       
@<TRIPOS>BOND
   1    1    2 1
   2    1    6 1
   3    1   17 am
   4    2    3 1
   5    2   43 1
   6    2   44 1
   7    3    4 1
   8    3   45 1
   9    3   46 1
  10    4    5 1
  11    4    7 1
  12    4   10 1
  13    5    6 1
  14    5   47 1
  15    5   48 1
  16    6   49 1
  17    6   50 1
  18    7    8 2
  19    7    9 am
  20    9   51 1
  21    9   52 1
  22   10   11 1
  23   10   53 1
  24   11   12 1
  25   11   54 1
  26   11   55 1
  27   12   13 1
  28   12   56 1
  29   12   57 1
  30   13   14 1
  31   13   15 1
  32   13   16 1
  33   17   18 2
  34   17   19 1
  35   19   20 2
  36   19   23 1
  37   20   21 1
  38   20   58 1
  39   21   22 2
  40   21   24 1
  41   22   23 1
  42   22   35 1
  43   24   25 ar
  44   24   29 ar
  45   25   26 ar
  46   25   59 1
  47   26   27 ar
  48   26   60 1
  49   27   28 ar
  50   27   30 1
  51   28   29 ar
  52   28   61 1
  53   29   62 1
  54   30   31 1
  55   31   32 1
  56   31   63 1
  57   31   64 1
  58   32   33 1
  59   32   65 1
  60   32   66 1
  61   33   34 1
  62   33   67 1
  63   33   68 1
  64   34   69 1
  65   35   36 ar
  66   35   40 ar
  67   36   37 ar
  68   36   42 1
  69   37   38 ar
  70   37   70 1
  71   38   39 ar
  72   38   41 1
  73   39   40 ar
  74   39   71 1
  75   40   72 1
  76   73   74 1

#	End of record

