#	Name: ASD01881136
#	Creating user name:	WinNT
#	Creation time:	15. 06. 2019 19:42

#	Modifying user name:	WinNT
#	Modification time:	15. 06. 2019 19:42

#	Program:	/corina/corina34_cracker 3.40 0067  02.08.2006

@<TRIPOS>MOLECULE
ASD01881136
  54   56    0    0    0
SMALL
NO_CHARGES


@<TRIPOS>ATOM
   1 N1            -0.0158     1.3135     0.0093 N.ar    
   2 C2             0.0021    -0.0041     0.0020 C.ar    
   3 N3             1.1312    -0.6835    -0.0120 N.ar    
   4 C4             2.3010    -0.0614    -0.0198 C.ar    
   5 C5             2.3294     1.3206    -0.0131 C.ar    
   6 C6             1.1167     2.0074     0.0022 C.ar    
   7 C7             3.6391     2.0661    -0.0211 C.3     
   8 O8             4.0409     2.3085    -1.3708 O.3     
   9 C9             5.2085     2.9750    -1.5558 C.ar    
  10 C10            5.6585     3.2442    -2.8451 C.ar    
  11 C11            6.8391     3.9186    -3.0320 C.ar    
  12 C12            7.5961     4.3388    -1.9330 C.ar    
  13 C13            7.1399     4.0660    -0.6389 C.ar    
  14 C14            5.9502     3.3927    -0.4580 C.ar    
  15 C15            7.5926     4.3607    -4.2617 C.3     
  16 N16            8.7987     5.0432    -3.7794 N.am    
  17 C17            8.7962     5.0281    -2.4355 C.2     
  18 O18            9.6621     5.5149    -1.7341 O.2     
  19 C19           -1.3047    -0.7547     0.0105 C.3     
  20 C20            3.5847    -0.8508    -0.0353 C.3     
  21 Cl21           8.0665     4.5795     0.7363 Cl      
  22 C22           -0.0164     5.5091     0.0309 C.3     
  23 C23           -1.3913     6.1801     0.0476 C.3     
  24 C24           -1.2169     7.7001     0.0536 C.3     
  25 O25            1.0934     3.3624     0.0092 O.3     
  26 C26           -0.1907     3.9891     0.0249 C.3     
  27 C27            9.4810     7.1048    -4.9045 C.3     
  28 C28            9.8348     5.6429    -4.6238 C.3     
  29 H29            3.5192     3.0167     0.4986 H       
  30 H30            4.3997     1.4698     0.4829 H       
  31 H31            5.0792     2.9223    -3.6979 H       
  32 H32            5.5976     3.1823     0.5409 H       
  33 H33            7.8676     3.4949    -4.8641 H       
  34 H34            6.9825     5.0476    -4.8483 H       
  35 H35           -1.6295    -0.9301    -1.0151 H       
  36 H36           -1.1716    -1.7101     0.5179 H       
  37 H37           -2.0580    -0.1667     0.5347 H       
  38 H38            3.8847    -1.0362    -1.0666 H       
  39 H39            4.3650    -0.2853     0.4741 H       
  40 H40            3.4327    -1.8016     0.4755 H       
  41 H41            0.5269     5.8160    -0.8629 H       
  42 H42            0.5442     5.8070     0.9170 H       
  43 H43           -1.9518     5.8822    -0.8384 H       
  44 H44           -1.9345     5.8732     0.9414 H       
  45 H45           -0.6564     7.9980     0.9397 H       
  46 H46           -0.6737     8.0070    -0.8401 H       
  47 H47           -2.1964     8.1782     0.0656 H       
  48 H48           -0.7339     3.6821     0.9187 H       
  49 H49           -0.7513     3.6911    -0.8612 H       
  50 H50           10.2519     7.5510    -5.5328 H       
  51 H51            8.5206     7.1541    -5.4175 H       
  52 H52            9.4186     7.6507    -3.9631 H       
  53 H53           10.7952     5.5936    -4.1108 H       
  54 H54            9.8973     5.0971    -5.5652 H       
@<TRIPOS>BOND
   1    1    2 ar
   2    1    6 ar
   3    2    3 ar
   4    2   19 1
   5    3    4 ar
   6    4    5 ar
   7    4   20 1
   8    5    6 ar
   9    5    7 1
  10    6   25 1
  11    7    8 1
  12    7   29 1
  13    7   30 1
  14    8    9 1
  15    9   10 ar
  16    9   14 ar
  17   10   11 ar
  18   10   31 1
  19   11   12 ar
  20   11   15 1
  21   12   13 ar
  22   12   17 1
  23   13   14 ar
  24   13   21 1
  25   14   32 1
  26   15   16 1
  27   15   33 1
  28   15   34 1
  29   16   17 am
  30   16   28 1
  31   17   18 2
  32   19   35 1
  33   19   36 1
  34   19   37 1
  35   20   38 1
  36   20   39 1
  37   20   40 1
  38   22   23 1
  39   22   26 1
  40   22   41 1
  41   22   42 1
  42   23   24 1
  43   23   43 1
  44   23   44 1
  45   24   45 1
  46   24   46 1
  47   24   47 1
  48   25   26 1
  49   26   48 1
  50   26   49 1
  51   27   28 1
  52   27   50 1
  53   27   51 1
  54   27   52 1
  55   28   53 1
  56   28   54 1

#	End of record

