#	Name: ASD01028478
#	Creating user name:	WinNT
#	Creation time:	15. 06. 2019 18:57

#	Modifying user name:	WinNT
#	Modification time:	15. 06. 2019 18:57

#	Program:	/corina/corina34_cracker 3.40 0067  02.08.2006

@<TRIPOS>MOLECULE
ASD01028478
  44   48    0    0    0
SMALL
NO_CHARGES


@<TRIPOS>ATOM
   1 C1            -0.0171     1.4118     0.0098 C.ar    
   2 C2             0.0021    -0.0041     0.0020 C.ar    
   3 C3             1.2105     2.1116     0.0018 C.ar    
   4 C4             2.3793     1.3714    -0.0133 C.ar    
   5 C5             2.3160    -0.0162    -0.0202 C.ar    
   6 N6             1.1704    -0.6565    -0.0123 N.ar    
   7 O7             1.2420     3.4670     0.0084 O.3     
   8 C8             2.5299     4.0861    -0.0005 C.3     
   9 C9             2.3673     5.5842     0.0086 C.2     
  10 N10            2.2907     6.3789     1.1110 N.pl3   
  11 C11            2.1473     7.6611     0.6412 C.2     
  12 N12            2.1437     7.5866    -0.6801 N.2     
  13 N13            2.2796     6.3593    -1.0415 N.2     
  14 C14            2.3290     6.1313     2.4508 C.2     
  15 C15            2.2252     7.1558     3.3438 C.2     
  16 C16            2.0761     8.4867     2.8823 C.2     
  17 C17            2.0391     8.7345     1.5483 C.2     
  18 C18           -1.2152    -0.7043     0.0100 C.ar    
  19 C19           -2.4012    -0.0065     0.0251 C.ar    
  20 C20           -2.4085     1.3917     0.0322 C.ar    
  21 C21           -1.2431     2.0938     0.0309 C.ar    
  22 O22           -3.5786    -0.6840     0.0328 O.3     
  23 C23           -4.7758     0.0961     0.0485 C.3     
  24 C24            2.2679     6.8776     4.7958 C.2     
  25 C25            3.2329     7.2929     5.6396 C.2     
  26 C26            3.0546     6.9091     6.9535 C.2     
  27 C27            1.9560     6.1866     7.1877 C.2     
  28 S28            1.0628     5.9599     5.6899 S.3     
  29 H29            3.3370     1.8705    -0.0202 H       
  30 H30            3.2348    -0.5838    -0.0321 H       
  31 H31            3.0883     3.7758     0.8827 H       
  32 H32            3.0716     3.7849    -0.8972 H       
  33 H33            2.4419     5.1179     2.8067 H       
  34 H34            1.9934     9.3000     3.5880 H       
  35 H35            1.9264     9.7453     1.1850 H       
  36 H36           -1.2205    -1.7843     0.0039 H       
  37 H37           -3.3501     1.9205     0.0433 H       
  38 H38           -1.2617     3.1736     0.0364 H       
  39 H39           -5.6412    -0.5666     0.0533 H       
  40 H40           -4.7911     0.7202     0.9420 H       
  41 H41           -4.8082     0.7297    -0.8378 H       
  42 H42            4.0792     7.8794     5.3136 H       
  43 H43            3.7523     7.1732     7.7345 H       
  44 H44            1.6587     5.8028     8.1525 H       
@<TRIPOS>BOND
   1    1    2 ar
   2    1    3 ar
   3    1   21 ar
   4    2   18 ar
   5    2    6 ar
   6    3    4 ar
   7    3    7 1
   8    4    5 ar
   9    4   29 1
  10    5    6 ar
  11    5   30 1
  12    7    8 1
  13    8    9 1
  14    8   31 1
  15    8   32 1
  16    9   10 1
  17    9   13 2
  18   10   11 1
  19   10   14 1
  20   11   12 2
  21   11   17 1
  22   12   13 1
  23   14   15 2
  24   14   33 1
  25   15   16 1
  26   15   24 1
  27   16   17 2
  28   16   34 1
  29   17   35 1
  30   18   19 ar
  31   18   36 1
  32   19   20 ar
  33   19   22 1
  34   20   21 ar
  35   20   37 1
  36   21   38 1
  37   22   23 1
  38   23   39 1
  39   23   40 1
  40   23   41 1
  41   24   25 2
  42   24   28 1
  43   25   26 1
  44   25   42 1
  45   26   27 2
  46   26   43 1
  47   27   28 1
  48   27   44 1

#	End of record

