#	Name: ASD01914535
#	Creating user name:	WinNT
#	Creation time:	15. 06. 2019 20:03

#	Modifying user name:	WinNT
#	Modification time:	15. 06. 2019 20:03

#	Program:	/corina/corina34_cracker 3.40 0067  02.08.2006

@<TRIPOS>MOLECULE
ASD01914535
  38   40    0    0    0
SMALL
NO_CHARGES


@<TRIPOS>ATOM
   1 C1            -0.0144     1.3691     0.1510 C.ar    
   2 C2             0.0005    -0.0170     0.1940 C.ar    
   3 N3            -1.1129    -0.7197     0.1917 N.ar    
   4 C4            -2.3050    -0.1404     0.1481 C.ar    
   5 C5            -2.3948     1.2630     0.1030 C.ar    
   6 C6            -1.2288     2.0314     0.1098 C.ar    
   7 O7            -3.5584    -0.6359     0.1364 O.3     
   8 C8            -4.4765     0.3559     0.0861 C.2     
   9 C9            -3.8271     1.5769     0.0625 C.2     
  10 C10           -5.8781     0.1735     0.0619 C.2     
  11 C11           -6.4447    -1.1876    -0.0503 C.ar    
  12 C12           -7.8220    -1.3850     0.0672 C.ar    
  13 C13           -5.6050    -2.2793    -0.2800 C.ar    
  14 C14           -6.1385    -3.5461    -0.3843 C.ar    
  15 C15           -7.5063    -3.7373    -0.2615 C.ar    
  16 C16           -8.3451    -2.6560    -0.0388 C.ar    
  17 O17           -6.6194     1.1381     0.1336 O.2     
  18 N18           -4.4071     2.8317     0.0117 N.pl3   
  19 C19           -1.2909     3.5364     0.0628 C.3     
  20 C20            1.3236    -0.7367     0.2442 C.3     
  21 F21           -8.0241    -4.9808    -0.3650 F       
  22 Cl22           1.4735     2.2635     0.1561 Cl      
  23 O23           -1.3451     4.0527     1.3941 O.3     
  24 C24           -1.4066     5.4787     1.4624 C.3     
  25 H25           -8.4763    -0.5435     0.2410 H       
  26 H26           -4.5395    -2.1315    -0.3761 H       
  27 H27           -5.4899    -4.3912    -0.5622 H       
  28 H28           -9.4098    -2.8104     0.0564 H       
  29 H29           -5.3728     2.9190    -0.0118 H       
  30 H30           -3.8480     3.6243    -0.0003 H       
  31 H31           -0.4037     3.9210    -0.4403 H       
  32 H32           -2.1816     3.8464    -0.4837 H       
  33 H33            1.6209    -0.8786     1.2832 H       
  34 H34            1.2279    -1.7075    -0.2421 H       
  35 H35            2.0791    -0.1445    -0.2723 H       
  36 H36           -0.5219     5.9037     0.9884 H       
  37 H37           -2.2997     5.8291     0.9450 H       
  38 H38           -1.4453     5.7912     2.5060 H       
@<TRIPOS>BOND
   1    1    2 ar
   2    1   22 1
   3    1    6 ar
   4    2    3 ar
   5    2   20 1
   6    3    4 ar
   7    4    5 ar
   8    4    7 1
   9    5    6 ar
  10    5    9 1
  11    6   19 1
  12    7    8 1
  13    8    9 2
  14    8   10 1
  15    9   18 1
  16   10   11 1
  17   10   17 2
  18   11   12 ar
  19   11   13 ar
  20   12   16 ar
  21   12   25 1
  22   13   14 ar
  23   13   26 1
  24   14   15 ar
  25   14   27 1
  26   15   16 ar
  27   15   21 1
  28   16   28 1
  29   18   29 1
  30   18   30 1
  31   19   23 1
  32   19   31 1
  33   19   32 1
  34   20   33 1
  35   20   34 1
  36   20   35 1
  37   23   24 1
  38   24   36 1
  39   24   37 1
  40   24   38 1

#	End of record

