#	Name: ASD01811809
#	Creating user name:	WinNT
#	Creation time:	15. 06. 2019 19:27

#	Modifying user name:	WinNT
#	Modification time:	15. 06. 2019 19:27

#	Program:	/corina/corina34_cracker 3.40 0067  02.08.2006

@<TRIPOS>MOLECULE
ASD01811809
  59   62    0    0    0
SMALL
NO_CHARGES


@<TRIPOS>ATOM
   1 C1            -0.1914     1.4833    -0.2118 C.ar    
   2 C2            -0.1020     0.1017    -0.1870 C.ar    
   3 C3             1.1293    -0.5182    -0.3075 C.ar    
   4 C4             2.2764     0.2339    -0.4535 C.ar    
   5 C5             2.1943     1.6275    -0.4799 C.ar    
   6 C6             0.9465     2.2428    -0.3570 C.ar    
   7 C7            -1.3492    -0.7291    -0.0279 C.3     
   8 C8            -1.5528    -1.0652     1.4508 C.3     
   9 C9             1.2176    -2.0224    -0.2785 C.3     
  10 C10            2.6414    -2.4470    -0.5301 C.ar    
  11 C11            3.5015    -2.6400     0.5359 C.ar    
  12 C12            4.8066    -3.0288     0.3111 C.ar    
  13 C13            5.2570    -3.2274    -0.9923 C.ar    
  14 C14            4.3863    -3.0320    -2.0622 C.ar    
  15 C15            3.0819    -2.6478    -1.8258 C.ar    
  16 C16            6.6595    -3.6451    -1.2401 C.2     
  17 C17            7.2438    -3.8801    -2.4999 C.2     
  18 C18            8.5303    -4.2398    -2.2990 C.2     
  19 N19            8.7613    -4.2359    -0.9686 N.pl3   
  20 N20            7.5785    -3.8559    -0.3217 N.2     
  21 C21           10.0302    -4.5671    -0.3154 C.3     
  22 C22            3.2180     2.6808    -0.6200 C.2     
  23 N23            2.6439     3.8959    -0.5874 N.am    
  24 C24            1.1955     3.7290    -0.4225 C.3     
  25 O25            4.4099     2.4788    -0.7461 O.2     
  26 C26            3.3483     5.1756    -0.6983 C.3     
  27 C27            3.4339     5.5848    -2.1701 C.3     
  28 C28            4.1695     6.9213    -2.2860 C.3     
  29 O29            4.1452     4.5845    -2.9019 O.3     
  30 C30            2.0222     5.7283    -2.7425 C.3     
  31 H31           -1.1542     1.9643    -0.1217 H       
  32 H32            3.2354    -0.2539    -0.5469 H       
  33 H33           -2.2087    -0.1681    -0.3947 H       
  34 H34           -1.2466    -1.6516    -0.5994 H       
  35 H35           -0.6933    -1.6262     1.8176 H       
  36 H36           -1.6554    -0.1428     2.0223 H       
  37 H37           -2.4549    -1.6662     1.5659 H       
  38 H38            0.8970    -2.3864     0.6977 H       
  39 H39            0.5721    -2.4392    -1.0516 H       
  40 H40            3.1514    -2.4857     1.5458 H       
  41 H41            5.4776    -3.1786     1.1441 H       
  42 H42            4.7303    -3.1847    -3.0745 H       
  43 H43            2.4060    -2.4964    -2.6544 H       
  44 H44            6.7509    -3.7891    -3.4565 H       
  45 H45            9.2479    -4.4871    -3.0674 H       
  46 H46           10.6292    -3.6630    -0.2057 H       
  47 H47            9.8322    -4.9933     0.6681 H       
  48 H48           10.5732    -5.2913    -0.9226 H       
  49 H49            0.6694     4.1596    -1.2745 H       
  50 H50            0.8663     4.2050     0.5012 H       
  51 H51            2.8057     5.9386    -0.1401 H       
  52 H52            4.3539     5.0734    -0.2905 H       
  53 H53            5.1751     6.8191    -1.8782 H       
  54 H54            4.2305     7.2128    -3.3345 H       
  55 H55            3.6269     7.6843    -1.7277 H       
  56 H56            5.0500     4.4400    -2.5929 H       
  57 H57            1.4797     6.4912    -2.1843 H       
  58 H58            2.0832     6.0197    -3.7910 H       
  59 H59            1.4982     4.7761    -2.6599 H       
@<TRIPOS>BOND
   1    1    2 ar
   2    1    6 ar
   3    1   31 1
   4    2    3 ar
   5    2    7 1
   6    3    4 ar
   7    3    9 1
   8    4    5 ar
   9    4   32 1
  10    5    6 ar
  11    5   22 1
  12    6   24 1
  13    7    8 1
  14    7   33 1
  15    7   34 1
  16    8   35 1
  17    8   36 1
  18    8   37 1
  19    9   10 1
  20    9   38 1
  21    9   39 1
  22   10   11 ar
  23   10   15 ar
  24   11   12 ar
  25   11   40 1
  26   12   13 ar
  27   12   41 1
  28   13   14 ar
  29   13   16 1
  30   14   15 ar
  31   14   42 1
  32   15   43 1
  33   16   17 1
  34   16   20 2
  35   17   18 2
  36   17   44 1
  37   18   19 1
  38   18   45 1
  39   19   20 1
  40   19   21 1
  41   21   46 1
  42   21   47 1
  43   21   48 1
  44   22   23 am
  45   22   25 2
  46   23   24 1
  47   23   26 1
  48   24   49 1
  49   24   50 1
  50   26   27 1
  51   26   51 1
  52   26   52 1
  53   27   28 1
  54   27   29 1
  55   27   30 1
  56   28   53 1
  57   28   54 1
  58   28   55 1
  59   29   56 1
  60   30   57 1
  61   30   58 1
  62   30   59 1

#	End of record

