#	Name: ASD00311463
#	Creating user name:	WinNT
#	Creation time:	15. 06. 2019 18:34

#	Modifying user name:	WinNT
#	Modification time:	15. 06. 2019 18:34

#	Program:	/corina/corina34_cracker 3.40 0067  02.08.2006

@<TRIPOS>MOLECULE
ASD00311463
  50   54    0    0    0
SMALL
NO_CHARGES


@<TRIPOS>ATOM
   1 C1            -0.0167     1.3777     0.0096 C.2     
   2 C2             0.0021    -0.0041     0.0020 C.2     
   3 C3             1.2588    -0.6767    -0.0131 C.2     
   4 C4             2.4315     0.0672    -0.0199 C.2     
   5 C5             2.3574     1.4752    -0.0117 C.2     
   6 N6             1.1648     2.0903     0.0022 N.am    
   7 C7            -1.3432    -0.5752     0.0118 C.2     
   8 C8            -2.3228     0.3261     0.0260 C.2     
   9 S9            -1.6793     1.9562     0.0358 S.3     
  10 O10            3.3823     2.1373    -0.0175 O.2     
  11 C11           -2.0687    -4.7664    -0.0057 C.ar    
  12 C12           -2.7057    -3.9524     0.9309 C.ar    
  13 C13           -2.4709    -2.5954     0.9369 C.ar    
  14 C14           -1.5956    -2.0347     0.0059 C.ar    
  15 C15           -0.9585    -2.8494    -0.9310 C.ar    
  16 C16           -1.1937    -4.2063    -0.9365 C.ar    
  17 C17           -2.3170    -6.2282    -0.0080 C.ar    
  18 C18           -1.6811    -7.0434    -0.9435 C.ar    
  19 C19           -1.9138    -8.4026    -0.9427 C.ar    
  20 C20           -2.7805    -8.9594    -0.0120 C.ar    
  21 C21           -3.4156    -8.1504     0.9206 C.ar    
  22 C22           -3.1823    -6.7913     0.9290 C.ar    
  23 O23           -3.0080   -10.2991    -0.0140 O.3     
  24 C24           -3.9111   -10.8052     0.9710 C.3     
  25 F25           -5.1661   -10.2105     0.8025 F       
  26 F26           -4.0289   -12.1918     0.8269 F       
  27 F27           -3.4222   -10.5090     2.2479 F       
  28 C28            3.7477    -0.6120    -0.0352 C.ar    
  29 C29            4.5938    -0.4746    -1.1354 C.ar    
  30 C30            5.8189    -1.1095    -1.1435 C.ar    
  31 C31            6.2082    -1.8815    -0.0635 C.ar    
  32 C32            5.3731    -2.0220     1.0305 C.ar    
  33 C33            4.1483    -1.3870     1.0531 C.ar    
  34 O34            1.3087    -2.0292    -0.0204 O.3     
  35 H35            1.1326     3.0597     0.0073 H       
  36 H36           -3.3754     0.0846     0.0342 H       
  37 H37           -3.3834    -4.3864     1.6512 H       
  38 H38           -2.9645    -1.9652     1.6619 H       
  39 H39           -0.2807    -2.4159    -1.6515 H       
  40 H40           -0.7004    -4.8369    -1.6613 H       
  41 H41           -1.0073    -6.6107    -1.6682 H       
  42 H42           -1.4215    -9.0345    -1.6671 H       
  43 H43           -4.0895    -8.5865     1.6431 H       
  44 H44           -3.6732    -6.1631     1.6575 H       
  45 H45            4.2907     0.1272    -1.9794 H       
  46 H46            6.4750    -1.0039    -1.9948 H       
  47 H47            7.1679    -2.3768    -0.0746 H       
  48 H48            5.6823    -2.6265     1.8704 H       
  49 H49            3.4993    -1.4934     1.9097 H       
  50 H50            2.2060    -2.3896    -0.0307 H       
@<TRIPOS>BOND
   1    1    2 2
   2    1    6 1
   3    1    9 1
   4    2    3 1
   5    2    7 1
   6    3    4 2
   7    3   34 1
   8    4    5 1
   9    4   28 1
  10    5    6 am
  11    5   10 2
  12    6   35 1
  13    7    8 2
  14    7   14 1
  15    8    9 1
  16    8   36 1
  17   11   12 ar
  18   11   16 ar
  19   11   17 1
  20   12   13 ar
  21   12   37 1
  22   13   14 ar
  23   13   38 1
  24   14   15 ar
  25   15   16 ar
  26   15   39 1
  27   16   40 1
  28   17   18 ar
  29   17   22 ar
  30   18   19 ar
  31   18   41 1
  32   19   20 ar
  33   19   42 1
  34   20   21 ar
  35   20   23 1
  36   21   22 ar
  37   21   43 1
  38   22   44 1
  39   23   24 1
  40   24   25 1
  41   24   26 1
  42   24   27 1
  43   28   29 ar
  44   28   33 ar
  45   29   30 ar
  46   29   45 1
  47   30   31 ar
  48   30   46 1
  49   31   32 ar
  50   31   47 1
  51   32   33 ar
  52   32   48 1
  53   33   49 1
  54   34   50 1

#	End of record

