#	Name: ASD01150246
#	Creating user name:	WinNT
#	Creation time:	15. 06. 2019 19:03

#	Modifying user name:	WinNT
#	Modification time:	15. 06. 2019 19:03

#	Program:	/corina/corina34_cracker 3.40 0067  02.08.2006

@<TRIPOS>MOLECULE
ASD01150246
  63   67    0    0    0
SMALL
NO_CHARGES


@<TRIPOS>ATOM
   1 C1             0.2757     0.8976     0.2188 C.ar    
   2 C2             0.1659    -0.4922     0.3389 C.ar    
   3 C3            -1.0513    -1.0964     0.3828 C.ar    
   4 C4            -2.2234    -0.3230     0.3072 C.ar    
   5 C5            -2.1173     1.0840     0.1856 C.ar    
   6 C6            -0.8541     1.6858     0.1480 C.ar    
   7 N7            -3.4292    -0.9002     0.3483 N.ar    
   8 C8            -4.5346    -0.1979     0.2789 C.ar    
   9 C9            -4.5189     1.1866     0.1583 C.ar    
  10 C10           -3.3040     1.8574     0.1100 C.ar    
  11 N11            1.5387     1.4917     0.1761 N.3     
  12 C12           -3.2491     3.3315    -0.0183 C.ar    
  13 C13           -5.8127     1.9554     0.0813 C.3     
  14 C14           -6.4220     1.7902    -1.3124 C.3     
  15 O15           -6.7236     1.4543     1.0618 O.3     
  16 C16           -5.8602    -0.9128     0.3311 C.3     
  17 C17           -2.7227     4.1049     1.0166 C.ar    
  18 C18           -2.6734     5.4776     0.8921 C.ar    
  19 C19           -3.1460     6.0888    -0.2585 C.ar    
  20 C20           -3.6698     5.3248    -1.2894 C.ar    
  21 C21           -3.7183     3.9511    -1.1769 C.ar    
  22 F22           -3.0963     7.4338    -0.3754 F       
  23 C23            2.5994     0.4806     0.2716 C.3     
  24 C24            3.9621     1.1488     0.0758 C.3     
  25 C25            4.1572     2.2231     1.1493 C.3     
  26 C26            3.0132     3.2369     1.0595 C.3     
  27 C27            1.6780     2.5081     1.2268 C.3     
  28 C28           -7.6879     2.3038     1.4979 C.ar    
  29 C29           -8.5387     1.9247     2.5453 C.ar    
  30 C30           -9.5278     2.8079     2.9855 C.ar    
  31 C31           -9.6607     4.0432     2.3890 C.ar    
  32 C32           -8.8177     4.4138     1.3543 C.ar    
  33 C33           -7.8322     3.5526     0.9133 C.ar    
  34 C34           -8.3954     0.6394     3.1603 C.1     
  35 N35           -8.2817    -0.3802     3.6482 N.1     
  36 H36            1.0610    -1.0937     0.3972 H       
  37 H37           -1.1180    -2.1704     0.4754 H       
  38 H38           -0.7647     2.7581     0.0554 H       
  39 H39           -5.6197     3.0114     0.2707 H       
  40 H40           -5.7708     2.2573    -2.0513 H       
  41 H41           -6.5271     0.7294    -1.5396 H       
  42 H42           -7.4021     2.2664    -1.3393 H       
  43 H43           -6.1517    -1.0623     1.3707 H       
  44 H44           -6.6164    -0.3134    -0.1757 H       
  45 H45           -5.7712    -1.8798    -0.1640 H       
  46 H46           -2.3549     3.6296     1.9139 H       
  47 H47           -2.2660     6.0772     1.6927 H       
  48 H48           -4.0372     5.8058    -2.1839 H       
  49 H49           -4.1264     3.3566    -1.9809 H       
  50 H50            2.5640     0.0087     1.2535 H       
  51 H51            2.4513    -0.2751    -0.4999 H       
  52 H52            4.7501     0.4007     0.1622 H       
  53 H53            4.0033     1.6091    -0.9114 H       
  54 H54            4.1550     1.7578     2.1350 H       
  55 H55            5.1078     2.7313     0.9875 H       
  56 H56            3.1233     3.9806     1.8488 H       
  57 H57            3.0394     3.7301     0.0878 H       
  58 H58            0.8607     3.2251     1.1491 H       
  59 H59            1.6469     2.0267     2.2042 H       
  60 H60          -10.1874     2.5229     3.7918 H       
  61 H61          -10.4257     4.7252     2.7297 H       
  62 H62           -8.9289     5.3838     0.8925 H       
  63 H63           -7.1787     3.8490     0.1062 H       
@<TRIPOS>BOND
   1    1    2 ar
   2    1   11 1
   3    1    6 ar
   4    2    3 ar
   5    2   36 1
   6    3    4 ar
   7    3   37 1
   8    4    5 ar
   9    4    7 ar
  10    5    6 ar
  11    5   10 ar
  12    6   38 1
  13    7    8 ar
  14    8    9 ar
  15    8   16 1
  16    9   10 ar
  17    9   13 1
  18   10   12 1
  19   11   23 1
  20   11   27 1
  21   12   17 ar
  22   12   21 ar
  23   13   14 1
  24   13   15 1
  25   13   39 1
  26   14   40 1
  27   14   41 1
  28   14   42 1
  29   15   28 1
  30   16   43 1
  31   16   44 1
  32   16   45 1
  33   17   18 ar
  34   17   46 1
  35   18   19 ar
  36   18   47 1
  37   19   20 ar
  38   19   22 1
  39   20   21 ar
  40   20   48 1
  41   21   49 1
  42   23   24 1
  43   23   50 1
  44   23   51 1
  45   24   25 1
  46   24   52 1
  47   24   53 1
  48   25   26 1
  49   25   54 1
  50   25   55 1
  51   26   27 1
  52   26   56 1
  53   26   57 1
  54   27   58 1
  55   27   59 1
  56   28   29 ar
  57   28   33 ar
  58   29   30 ar
  59   29   34 1
  60   30   31 ar
  61   30   60 1
  62   31   32 ar
  63   31   61 1
  64   32   33 ar
  65   32   62 1
  66   33   63 1
  67   34   35 3

#	End of record

