#	Name: ASD03092416
#	Creating user name:	WinNT
#	Creation time:	15. 06. 2019 20:32

#	Modifying user name:	WinNT
#	Modification time:	15. 06. 2019 20:32

#	Program:	/corina/corina34_cracker 3.40 0067  02.08.2006

@<TRIPOS>MOLECULE
ASD03092416
  56   59    0    0    0
SMALL
NO_CHARGES


@<TRIPOS>ATOM
   1 C1             0.3408     1.9914     0.1457 C.2     
   2 C2             0.5547     0.5306     0.2250 C.ar    
   3 C3             1.8504     0.0116     0.2369 C.ar    
   4 C4             2.0430    -1.3534     0.3110 C.ar    
   5 C5             0.9538    -2.2066     0.3729 C.ar    
   6 C6            -0.3323    -1.6976     0.3614 C.ar    
   7 C7            -0.5380    -0.3348     0.2939 C.ar    
   8 O8             1.2944     2.7431     0.0908 O.2     
   9 N9            -0.9116     2.4891     0.1288 N.am    
  10 C10           -1.1235     3.9366     0.0503 C.3     
  11 S11           -4.9829     4.7257    -0.6383 S.3     
  12 C12           -4.5796     4.5791     1.0163 C.2     
  13 N13           -3.3137     4.3240     1.1505 N.2     
  14 C14           -2.6020     4.2284     0.0468 C.2     
  15 C15           -3.3080     4.4136    -1.0867 C.2     
  16 C16           -3.0728     5.3727    -3.3793 C.ar    
  17 C17           -2.7716     4.3635    -2.4628 C.ar    
  18 C18           -1.9524     3.3037    -2.8693 C.ar    
  19 C19           -1.4756     3.3043    -4.1684 C.ar    
  20 C20           -1.8201     4.3418    -5.0157 C.ar    
  21 N21           -2.5943     5.3282    -4.6053 N.ar    
  22 C22           -1.3023     4.3459    -6.4309 C.3     
  23 N23           -5.4748     4.7132     2.0634 N.3     
  24 C24           -6.8282     4.9997     1.5661 C.3     
  25 C25           -7.7715     5.1992     2.7554 C.3     
  26 O26           -7.7350     4.0359     3.5866 O.3     
  27 C27           -6.4319     3.7279     4.0890 C.3     
  28 C28           -5.4751     3.5136     2.9132 C.3     
  29 C29           -6.4978     2.4534     4.9329 C.3     
  30 C30           -9.1973     5.4183     2.2455 C.3     
  31 Cl31           3.6533    -2.0017     0.3259 Cl      
  32 H32            2.7002     0.6763     0.1879 H       
  33 H33            1.1092    -3.2738     0.4300 H       
  34 H34           -1.1775    -2.3682     0.4096 H       
  35 H35           -1.5428     0.0611     0.2896 H       
  36 H36           -1.6726     1.8890     0.1686 H       
  37 H37           -0.6600     4.4189     0.9110 H       
  38 H38           -0.6753     4.3203    -0.8662 H       
  39 H39           -3.7072     6.1945    -3.0817 H       
  40 H40           -1.6987     2.5063    -2.1865 H       
  41 H41           -0.8407     2.5031    -4.5170 H       
  42 H42           -2.0068     3.8224    -7.0772 H       
  43 H43           -1.1901     5.3745    -6.7738 H       
  44 H44           -0.3354     3.8439    -6.4655 H       
  45 H45           -6.8093     5.9059     0.9607 H       
  46 H46           -7.1780     4.1638     0.9604 H       
  47 H47           -7.4526     6.0680     3.3312 H       
  48 H48           -6.0741     4.5540     4.7035 H       
  49 H49           -5.8032     2.6538     2.3290 H       
  50 H50           -4.4684     3.3349     3.2910 H       
  51 H51           -6.8539     1.6277     4.3168 H       
  52 H52           -5.5044     2.2191     5.3154 H       
  53 H53           -7.1821     2.6053     5.7676 H       
  54 H54           -9.5157     4.5480     1.6716 H       
  55 H55           -9.8683     5.5602     3.0927 H       
  56 H56           -9.2236     6.3027     1.6090 H       
@<TRIPOS>BOND
   1    1    2 1
   2    1    8 2
   3    1    9 am
   4    2    3 ar
   5    2    7 ar
   6    3    4 ar
   7    3   32 1
   8    4    5 ar
   9    4   31 1
  10    5    6 ar
  11    5   33 1
  12    6    7 ar
  13    6   34 1
  14    7   35 1
  15    9   10 1
  16    9   36 1
  17   10   14 1
  18   10   37 1
  19   10   38 1
  20   11   12 1
  21   11   15 1
  22   12   13 2
  23   12   23 1
  24   13   14 1
  25   14   15 2
  26   15   17 1
  27   16   17 ar
  28   16   21 ar
  29   16   39 1
  30   17   18 ar
  31   18   19 ar
  32   18   40 1
  33   19   20 ar
  34   19   41 1
  35   20   21 ar
  36   20   22 1
  37   22   42 1
  38   22   43 1
  39   22   44 1
  40   23   24 1
  41   23   28 1
  42   24   25 1
  43   24   45 1
  44   24   46 1
  45   25   26 1
  46   25   30 1
  47   25   47 1
  48   26   27 1
  49   27   28 1
  50   27   29 1
  51   27   48 1
  52   28   49 1
  53   28   50 1
  54   29   51 1
  55   29   52 1
  56   29   53 1
  57   30   54 1
  58   30   55 1
  59   30   56 1

#	End of record

