#	Name: ASD01884735
#	Creating user name:	WinNT
#	Creation time:	15. 06. 2019 19:48

#	Modifying user name:	WinNT
#	Modification time:	15. 06. 2019 19:48

#	Program:	/corina/corina34_cracker 3.40 0067  02.08.2006

@<TRIPOS>MOLECULE
ASD01884735
  55   57    0    0    0
SMALL
NO_CHARGES


@<TRIPOS>ATOM
   1 C1            -0.0169     1.3882     0.0421 C.2     
   2 C2             0.0019    -0.0042     0.0351 C.2     
   3 C3            -1.2135    -0.6983     0.0098 C.2     
   4 C4            -2.3898    -0.0118    -0.0079 C.2     
   5 N5            -2.4100     1.3457    -0.0012 N.am    
   6 C6            -1.2677     2.0576     0.0293 C.2     
   7 O7            -1.3080     3.2764     0.0351 O.2     
   8 C8            -3.6959     2.0472    -0.0214 C.3     
   9 C9             1.2063     2.1323     0.0677 C.1     
  10 N10            2.1766     2.7227     0.0880 N.1     
  11 C11           -4.1704     2.2839     1.4138 C.3     
  12 C12           -5.5133     3.0166     1.3928 C.3     
  13 C13           -6.5756     2.1164     0.7586 C.3     
  14 C14           -5.9275     3.3637     2.8242 C.3     
  15 N15           -1.2200    -2.1015     0.0024 N.pl3   
  16 C16           -2.4703    -2.8595     0.1194 C.3     
  17 C17           -2.2857    -3.9972     1.0924 C.ar    
  18 C18           -1.0468    -4.3681     1.5655 C.ar    
  19 C19            0.2237    -3.6622     1.1701 C.3     
  20 C20            0.0273    -2.8727    -0.1294 C.3     
  21 C21           -3.4206    -4.6802     1.5101 C.ar    
  22 C22           -3.3187    -5.7372     2.3954 C.ar    
  23 C23           -2.0662    -6.1183     2.8686 C.ar    
  24 C24           -0.9402    -5.4340     2.4517 C.ar    
  25 O25           -4.4346    -6.3999     2.8015 O.3     
  26 O26           -1.9513    -7.1584     3.7371 O.3     
  27 C27           -5.6841    -5.9509     2.2733 C.3     
  28 C28           -0.6340    -7.4918     4.1794 C.3     
  29 H29            0.9395    -0.5402     0.0486 H       
  30 H30           -3.3221    -0.5565    -0.0281 H       
  31 H31           -3.5793     3.0052    -0.5281 H       
  32 H32           -4.4314     1.4427    -0.5521 H       
  33 H33           -4.2870     1.3259     1.9206 H       
  34 H34           -3.4349     2.8885     1.9446 H       
  35 H35           -5.4183     3.9327     0.8098 H       
  36 H36           -6.2805     1.8691    -0.2612 H       
  37 H37           -6.6706     1.2003     1.3416 H       
  38 H38           -7.5323     2.6384     0.7436 H       
  39 H39           -5.1707     4.0050     3.2760 H       
  40 H40           -6.8842     3.8857     2.8092 H       
  41 H41           -6.0225     2.4476     3.4072 H       
  42 H42           -3.2616    -2.2009     0.4773 H       
  43 H43           -2.7453    -3.2584    -0.8570 H       
  44 H44            0.5165    -2.9782     1.9667 H       
  45 H45            1.0129    -4.3997     1.0239 H       
  46 H46           -0.0456    -3.5608    -0.9716 H       
  47 H47            0.8666    -2.1935    -0.2787 H       
  48 H48           -4.3909    -4.3828     1.1406 H       
  49 H49            0.0318    -5.7300     2.8179 H       
  50 H50           -5.8438    -4.9096     2.5531 H       
  51 H51           -5.6713    -6.0373     1.1868 H       
  52 H52           -6.4904    -6.5634     2.6770 H       
  53 H53           -0.6844    -8.3366     4.8664 H       
  54 H54           -0.0188    -7.7585     3.3201 H       
  55 H55           -0.1941    -6.6346     4.6892 H       
@<TRIPOS>BOND
   1    1    2 2
   2    1    9 1
   3    1    6 1
   4    2    3 1
   5    2   29 1
   6    3    4 2
   7    3   15 1
   8    4    5 1
   9    4   30 1
  10    5    8 1
  11    5    6 am
  12    6    7 2
  13    8   11 1
  14    8   31 1
  15    8   32 1
  16    9   10 3
  17   11   12 1
  18   11   33 1
  19   11   34 1
  20   12   13 1
  21   12   14 1
  22   12   35 1
  23   13   36 1
  24   13   37 1
  25   13   38 1
  26   14   39 1
  27   14   40 1
  28   14   41 1
  29   15   16 1
  30   15   20 1
  31   16   17 1
  32   16   42 1
  33   16   43 1
  34   17   18 ar
  35   17   21 ar
  36   18   19 1
  37   18   24 ar
  38   19   20 1
  39   19   44 1
  40   19   45 1
  41   20   46 1
  42   20   47 1
  43   21   22 ar
  44   21   48 1
  45   22   23 ar
  46   22   25 1
  47   23   24 ar
  48   23   26 1
  49   24   49 1
  50   25   27 1
  51   26   28 1
  52   27   50 1
  53   27   51 1
  54   27   52 1
  55   28   53 1
  56   28   54 1
  57   28   55 1

#	End of record

