#	Name: ASD01917978
#	Creating user name:	WinNT
#	Creation time:	15. 06. 2019 20:10

#	Modifying user name:	WinNT
#	Modification time:	15. 06. 2019 20:10

#	Program:	/corina/corina34_cracker 3.40 0067  02.08.2006

@<TRIPOS>MOLECULE
ASD01917978
  37   40    0    0    0
SMALL
NO_CHARGES


@<TRIPOS>ATOM
   1 N1             4.8181    -0.4144    -2.1422 N.ar    
   2 C2             5.2856     0.2843    -3.1583 C.ar    
   3 C3             5.1747     1.6618    -3.1832 C.ar    
   4 C4             4.5627     2.3106    -2.1226 C.ar    
   5 C5             4.0808     1.5428    -1.0672 C.ar    
   6 C6             4.2295     0.1638    -1.1143 C.ar    
   7 O7             3.4738     2.1347    -0.0052 O.3     
   8 C8             3.4562     3.4938     0.0443 C.2     
   9 N9             2.2080     5.5081    -0.0207 N.pl3   
  10 C10            2.2743     4.1522    -0.0651 C.2     
  11 C11            4.6568     4.1939     0.2132 C.2     
  12 C12            4.6307     5.5832     0.2634 C.2     
  13 C13            3.3390     6.2578     0.1364 C.2     
  14 C14            5.8718     6.3557     0.4403 C.2     
  15 N15            5.8268     7.7020     0.4866 N.am    
  16 C16            6.9845     8.4292     0.7595 C.ar    
  17 N17            8.1440     7.7997     0.8648 N.ar    
  18 C18            6.9104     9.8087     0.9126 C.ar    
  19 C19            8.0666    10.5195     1.1832 C.ar    
  20 C20            9.2634     9.8215     1.2919 C.ar    
  21 C21            9.2634     8.4488     1.1220 C.ar    
  22 O22            6.9375     5.7790     0.5447 O.2     
  23 N23            1.1464     6.4205    -0.1072 N.2     
  24 C24            1.6624     7.6226    -0.0085 C.2     
  25 N25            2.9775     7.5311     0.1431 N.2     
  26 F26           10.4150    10.4771     1.5548 F       
  27 H27            5.7619    -0.2267    -3.9819 H       
  28 H28            5.5607     2.2260    -4.0193 H       
  29 H29            4.4625     3.3859    -2.1154 H       
  30 H30            3.8588    -0.4418    -0.3006 H       
  31 H31            1.3644     3.5841    -0.1908 H       
  32 H32            5.5919     3.6612     0.3038 H       
  33 H33            4.9888     8.1649     0.3300 H       
  34 H34            5.9631    10.3193     0.8212 H       
  35 H35            8.0395    11.5921     1.3068 H       
  36 H36           10.1911     7.9015     1.2009 H       
  37 H37            1.1020     8.5453    -0.0395 H       
@<TRIPOS>BOND
   1    1    2 ar
   2    1    6 ar
   3    2    3 ar
   4    2   27 1
   5    3    4 ar
   6    3   28 1
   7    4    5 ar
   8    4   29 1
   9    5    6 ar
  10    5    7 1
  11    6   30 1
  12    7    8 1
  13    8   11 1
  14    8   10 2
  15    9   10 1
  16    9   23 1
  17    9   13 1
  18   10   31 1
  19   11   12 2
  20   11   32 1
  21   12   13 1
  22   12   14 1
  23   13   25 2
  24   14   15 am
  25   14   22 2
  26   15   16 1
  27   15   33 1
  28   16   18 ar
  29   16   17 ar
  30   17   21 ar
  31   18   19 ar
  32   18   34 1
  33   19   20 ar
  34   19   35 1
  35   20   21 ar
  36   20   26 1
  37   21   36 1
  38   23   24 2
  39   24   25 1
  40   24   37 1

#	End of record

