#	Name: ASD02560076
#	Creating user name:	WinNT
#	Creation time:	15. 06. 2019 20:24

#	Modifying user name:	WinNT
#	Modification time:	15. 06. 2019 20:24

#	Program:	/corina/corina34_cracker 3.40 0067  02.08.2006

@<TRIPOS>MOLECULE
ASD02560076
  53   55    0    0    0
SMALL
NO_CHARGES


@<TRIPOS>ATOM
   1 C1            -3.2449     2.9320     3.5501 C.ar    
   2 C2            -2.0658     3.6539     3.5086 C.ar    
   3 C3            -1.4197     3.8684     2.3011 C.ar    
   4 C4            -1.9514     3.3614     1.1313 C.ar    
   5 C5            -3.1416     2.6319     1.1684 C.ar    
   6 C6            -3.7832     2.4154     2.3896 C.ar    
   7 C7            -3.7167     2.0862    -0.0790 C.2     
   8 C8            -4.9194     1.2352    -0.0256 C.ar    
   9 O9            -3.1980     2.3390    -1.1492 O.2     
  10 C10           -4.8096    -0.1484    -0.1908 C.ar    
  11 C11           -5.9386    -0.9382    -0.1397 C.ar    
  12 C12           -7.1832    -0.3660     0.0744 C.ar    
  13 C13           -7.3055     0.9998     0.2387 C.ar    
  14 C14           -6.1803     1.8088     0.1970 C.ar    
  15 O15           -6.2994     3.1504     0.3587 O.3     
  16 C16           -7.6163     3.6642     0.5683 C.3     
  17 C17           -7.5522     5.1615     0.7258 C.2     
  18 N18           -8.6819     5.8662     0.9347 N.am    
  19 C19           -8.6132     7.2424     1.1781 C.ar    
  20 C20           -7.6291     8.0086     0.5677 C.ar    
  21 C21           -7.5639     9.3669     0.8100 C.ar    
  22 C22           -8.4770     9.9636     1.6597 C.ar    
  23 C23           -9.4583     9.2033     2.2692 C.ar    
  24 C24           -9.5327     7.8459     2.0263 C.ar    
  25 O25           -6.4839     5.7326     0.6646 O.2     
  26 C26           -3.9403     2.7037     4.8675 C.3     
  27 F27           -3.2084     3.3124     5.8927 F       
  28 F28           -5.2243     3.2572     4.8191 F       
  29 F29           -4.0338     1.3297     5.1136 F       
  30 F30           -0.2686     4.5749     2.2682 F       
  31 Cl31          -5.8013    -2.6566    -0.3450 Cl      
  32 C32          -10.6024     7.0181     2.6908 C.3     
  33 S33           -8.3897    11.6964     1.9671 S.o2    
  34 N34           -9.3310    12.4443     0.8283 N.am    
  35 O35           -9.0253    11.9144     3.2192 O.2     
  36 O36           -7.0495    12.0847     1.6978 O.2     
  37 H37           -1.6469     4.0524     4.4208 H       
  38 H38           -1.4481     3.5289     0.1905 H       
  39 H39           -4.7037     1.8517     2.4245 H       
  40 H40           -3.8420    -0.5981    -0.3585 H       
  41 H41           -8.0624    -0.9920     0.1126 H       
  42 H42           -8.2786     1.4379     0.4043 H       
  43 H43           -8.2439     3.4154    -0.2875 H       
  44 H44           -8.0396     3.2218     1.4701 H       
  45 H45           -9.5426     5.4193     0.9164 H       
  46 H46           -6.9152     7.5429    -0.0955 H       
  47 H47           -6.7988     9.9634     0.3356 H       
  48 H48          -10.1699     9.6723     2.9327 H       
  49 H49          -11.4895     6.9950     2.0580 H       
  50 H50          -10.2357     6.0025     2.8398 H       
  51 H51          -10.8555     7.4582     3.6554 H       
  52 H52           -9.7729    13.2819     1.0383 H       
  53 H53           -9.4406    12.0448    -0.0488 H       
@<TRIPOS>BOND
   1    1    2 ar
   2    1   26 1
   3    1    6 ar
   4    2    3 ar
   5    2   37 1
   6    3    4 ar
   7    3   30 1
   8    4    5 ar
   9    4   38 1
  10    5    6 ar
  11    5    7 1
  12    6   39 1
  13    7    8 1
  14    7    9 2
  15    8   10 ar
  16    8   14 ar
  17   10   11 ar
  18   10   40 1
  19   11   12 ar
  20   11   31 1
  21   12   13 ar
  22   12   41 1
  23   13   14 ar
  24   13   42 1
  25   14   15 1
  26   15   16 1
  27   16   17 1
  28   16   43 1
  29   16   44 1
  30   17   18 am
  31   17   25 2
  32   18   19 1
  33   18   45 1
  34   19   20 ar
  35   19   24 ar
  36   20   21 ar
  37   20   46 1
  38   21   22 ar
  39   21   47 1
  40   22   23 ar
  41   22   33 1
  42   23   24 ar
  43   23   48 1
  44   24   32 1
  45   26   27 1
  46   26   28 1
  47   26   29 1
  48   32   49 1
  49   32   50 1
  50   32   51 1
  51   33   34 am
  52   33   35 2
  53   33   36 2
  54   34   52 1
  55   34   53 1

#	End of record

