#	Name: ASD01840364
#	Creating user name:	WinNT
#	Creation time:	15. 06. 2019 19:37

#	Modifying user name:	WinNT
#	Modification time:	15. 06. 2019 19:37

#	Program:	/corina/corina34_cracker 3.40 0067  02.08.2006

@<TRIPOS>MOLECULE
ASD01840364
  51   54    0    0    0
SMALL
NO_CHARGES


@<TRIPOS>ATOM
   1 C1             0.2611     1.7552    -0.9980 C.ar    
   2 C2             0.3841     0.5320    -1.6195 C.ar    
   3 N3             1.4990    -0.1677    -1.4965 N.ar    
   4 N4             2.4999     0.2427    -0.8111 N.ar    
   5 C5             1.3546     2.2267    -0.2364 C.ar    
   6 C6             1.5104     3.4570     0.5171 C.2     
   7 C7             2.4928     1.4121    -0.1670 C.ar    
   8 S8             3.7250     2.1824     0.8223 S.3     
   9 C9             2.7118     3.5783     1.1344 C.2     
  10 C10           -0.9999     2.5697    -1.1313 C.3     
  11 C11           -0.7562    -0.0106    -2.4419 C.3     
  12 N12            0.5179     4.4243     0.5985 N.pl3   
  13 C13            3.1102     4.7236     1.9514 C.2     
  14 O14            2.3404     5.6527     2.1138 O.2     
  15 N15            4.3297     4.7507     2.5248 N.am    
  16 C16            5.0757     5.6831     3.3831 C.3     
  17 C17            5.4973     3.8578     2.5728 C.3     
  18 C18            5.8492     4.4755     3.9303 C.3     
  19 N19            7.2839     4.7195     4.1305 N.3     
  20 S20            7.8823     3.8491     5.5445 S.o2    
  21 C21            9.6031     4.1695     5.7467 C.2     
  22 C22           10.1422     5.1727     6.4653 C.2     
  23 N23           11.5013     5.0528     6.3553 N.pl3   
  24 C24           11.7456     3.9797     5.5726 C.2     
  25 N25           10.6057     3.4535     5.2165 N.2     
  26 C26           12.5037     5.9256     6.9714 C.3     
  27 C27            7.1149     4.3251     6.8087 C.2     
  28 C28            7.6591     2.3244     5.3468 C.2     
  29 H29           -1.6441     2.3852    -0.2716 H       
  30 H30           -0.7456     3.6287    -1.1742 H       
  31 H31           -1.5220     2.2841    -2.0445 H       
  32 H32           -0.6493     0.3210    -3.4747 H       
  33 H33           -0.7433    -1.1000    -2.4068 H       
  34 H34           -1.7008     0.3547    -2.0389 H       
  35 H35           -0.4028     4.1923     0.4002 H       
  36 H36            0.7452     5.3322     0.8537 H       
  37 H37            5.6996     6.3818     2.8256 H       
  38 H38            4.4548     6.1761     4.1311 H       
  39 H39            5.2341     2.8018     2.6332 H       
  40 H40            6.2346     4.0653     1.7972 H       
  41 H41            5.3708     3.9852     4.7782 H       
  42 H42            7.8109     4.4748     3.3055 H       
  43 H43            9.6054     5.9271     7.0213 H       
  44 H44           12.7225     3.6150     5.2915 H       
  45 H45           12.7664     5.5386     7.9560 H       
  46 H46           13.3942     5.9560     6.3435 H       
  47 H47           12.0964     6.9315     7.0732 H       
  48 H48            6.5424     3.6183     7.3909 H       
  49 H49            7.1540     5.3629     7.1052 H       
  50 H50            8.1191     1.8150     4.5130 H       
  51 H51            7.0441     1.7739     6.0433 H       
@<TRIPOS>BOND
   1    1    2 ar
   2    1    5 ar
   3    1   10 1
   4    2   11 1
   5    2    3 ar
   6    3    4 ar
   7    4    7 ar
   8    5    7 ar
   9    5    6 1
  10    6    9 2
  11    6   12 1
  12    7    8 1
  13    8    9 1
  14    9   13 1
  15   10   29 1
  16   10   30 1
  17   10   31 1
  18   11   32 1
  19   11   33 1
  20   11   34 1
  21   12   35 1
  22   12   36 1
  23   13   14 2
  24   13   15 am
  25   15   16 1
  26   15   17 1
  27   16   18 1
  28   16   37 1
  29   16   38 1
  30   17   18 1
  31   17   39 1
  32   17   40 1
  33   18   19 1
  34   18   41 1
  35   19   20 1
  36   19   42 1
  37   20   21 1
  38   20   27 2
  39   20   28 2
  40   21   22 2
  41   21   25 1
  42   22   23 1
  43   22   43 1
  44   23   24 1
  45   23   26 1
  46   24   25 2
  47   24   44 1
  48   26   45 1
  49   26   46 1
  50   26   47 1
  51   27   48 1
  52   27   49 1
  53   28   50 1
  54   28   51 1

#	End of record

