#	Name: ASD09120016
#	Creating user name:	WinNT
#	Creation time:	15. 06. 2019 21:21

#	Modifying user name:	WinNT
#	Modification time:	15. 06. 2019 21:21

#	Program:	/corina/corina34_cracker 3.40 0067  02.08.2006

@<TRIPOS>MOLECULE
ASD09120016
  34   36    0    0    0
SMALL
NO_CHARGES


@<TRIPOS>ATOM
   1 C1             0.0775     1.3761     0.0694 C.ar    
   2 C2             0.0948    -0.0027     0.0746 C.ar    
   3 C3            -0.8097    -0.7130    -0.6958 C.ar    
   4 C4            -1.7370    -0.0467    -1.4756 C.ar    
   5 C5            -1.7659     1.3344    -1.4908 C.ar    
   6 C6            -0.8556     2.0568    -0.7153 C.ar    
   7 N7             1.0835    -0.7253     0.9060 N.pl3   
   8 O8             1.8804    -0.1020     1.5843 O.2     
   9 O9             1.1002    -1.9432     0.9119 O.2     
  10 C10           -0.8802     3.5340    -0.7255 C.2     
  11 O11           -1.6939     4.1237    -1.4097 O.2     
  12 N12           -0.0006     4.2277     0.0238 N.am    
  13 C13            0.0416     5.6248    -0.0599 C.ar    
  14 Cl14          -2.9298     2.1699    -2.4711 Cl      
  15 C15            1.2559     6.2902     0.0397 C.ar    
  16 C16           -1.1301     6.3450    -0.2482 C.ar    
  17 C17           -1.0884     7.7279    -0.3302 C.ar    
  18 C18            0.1283     8.3921    -0.2219 C.ar    
  19 C19            1.2977     7.6689    -0.0414 C.ar    
  20 O20            0.1883     9.7510    -0.2919 O.3     
  21 O21           -2.2453     8.4199    -0.5185 O.3     
  22 C22           -2.2140     9.8196    -0.2190 C.3     
  23 C23           -0.9492    10.4176    -0.8499 C.3     
  24 H24            0.7814     1.9283     0.6743 H       
  25 H25           -0.7908    -1.7928    -0.6881 H       
  26 H26           -2.4398    -0.6071    -2.0744 H       
  27 H27            0.6033     3.7592     0.6211 H       
  28 H28            2.1683     5.7300     0.1810 H       
  29 H29           -2.0744     5.8275    -0.3313 H       
  30 H30            2.2435     8.1846     0.0359 H       
  31 H31           -3.0970    10.3045    -0.6353 H       
  32 H32           -2.1895     9.9639     0.8611 H       
  33 H33           -0.8963    11.4834    -0.6277 H       
  34 H34           -0.9705    10.2672    -1.9293 H       
@<TRIPOS>BOND
   1    1    2 ar
   2    1    6 ar
   3    1   24 1
   4    2    3 ar
   5    2    7 1
   6    3    4 ar
   7    3   25 1
   8    4    5 ar
   9    4   26 1
  10    5    6 ar
  11    5   14 1
  12    6   10 1
  13    7    8 2
  14    7    9 2
  15   10   11 2
  16   10   12 am
  17   12   13 1
  18   12   27 1
  19   13   16 ar
  20   13   15 ar
  21   15   19 ar
  22   15   28 1
  23   16   17 ar
  24   16   29 1
  25   17   21 1
  26   17   18 ar
  27   18   19 ar
  28   18   20 1
  29   19   30 1
  30   20   23 1
  31   21   22 1
  32   22   23 1
  33   22   31 1
  34   22   32 1
  35   23   33 1
  36   23   34 1

#	End of record

