#	Name: ASD03091842
#	Creating user name:	WinNT
#	Creation time:	15. 06. 2019 20:31

#	Modifying user name:	WinNT
#	Modification time:	15. 06. 2019 20:31

#	Program:	/corina/corina34_cracker 3.40 0067  02.08.2006

@<TRIPOS>MOLECULE
ASD03091842
  50   53    0    0    0
SMALL
NO_CHARGES


@<TRIPOS>ATOM
   1 C1            -0.0150     1.4035     0.0122 C.ar    
   2 C2            -1.2270     2.0727     0.0343 C.ar    
   3 C3            -2.4083     1.3535     0.0344 C.ar    
   4 C4            -2.3906    -0.0317     0.0125 C.ar    
   5 C5            -1.1910    -0.7138    -0.0095 C.ar    
   6 C6             0.0034     0.0001    -0.0096 C.ar    
   7 O7             1.1655     2.0698     0.0167 O.3     
   8 C8             2.2611     1.4540     0.6939 C.3     
   9 N9             2.4082     0.0564     0.2863 N.am    
  10 C10            1.3155    -0.6785    -0.0267 C.2     
  11 C11           -3.6884    -0.7978     0.0134 C.3     
  12 C12           -4.1979    -0.9244    -1.3992 C.ar    
  13 C13           -5.0324     0.0406    -1.9313 C.ar    
  14 C14           -3.8309    -2.0070    -2.1834 C.ar    
  15 C15           -4.3240    -2.0820    -3.4773 C.ar    
  16 C16           -5.1587    -1.0822    -3.9389 C.ar    
  17 N17           -5.4826    -0.0636    -3.1663 N.ar    
  18 O18            1.4104    -1.8567    -0.3116 O.2     
  19 C19            3.7407    -0.5486     0.2168 C.3     
  20 C20            4.5951     0.1755    -0.8440 C.3     
  21 C21            4.4690    -0.3752     1.5611 C.3     
  22 C22            5.7407     0.4482     1.2703 C.3     
  23 C23            5.4064     1.2161    -0.0327 C.3     
  24 O24            4.8243    -1.6528     2.0937 O.3     
  25 Cl25          -1.2636     3.8081     0.0622 Cl      
  26 C26           -3.7266     2.0831     0.0592 C.3     
  27 C27           -5.7004    -1.1534    -5.3433 C.3     
  28 H28           -1.1794    -1.7937    -0.0263 H       
  29 H29            3.1777     1.9944     0.4577 H       
  30 H30            2.0877     1.4972     1.7691 H       
  31 H31           -3.5236    -1.7912     0.4305 H       
  32 H32           -4.4233    -0.2669     0.6185 H       
  33 H33           -5.3194     0.8894    -1.3284 H       
  34 H34           -3.1764    -2.7737    -1.7959 H       
  35 H35           -4.0586    -2.9112    -4.1164 H       
  36 H36            3.6574    -1.6073    -0.0289 H       
  37 H37            5.2644    -0.5277    -1.3397 H       
  38 H38            3.9563     0.6741    -1.5730 H       
  39 H39            3.8312     0.1591     2.2652 H       
  40 H40            5.9379     1.1458     2.0842 H       
  41 H41            6.5950    -0.2109     1.1161 H       
  42 H42            6.3178     1.4935    -0.5623 H       
  43 H43            4.8001     2.0961     0.1823 H       
  44 H44            5.2871    -1.6105     2.9417 H       
  45 H45           -4.0546     2.2755    -0.9624 H       
  46 H46           -4.4705     1.4722     0.5706 H       
  47 H47           -3.6084     3.0294     0.5871 H       
  48 H48           -6.6468    -1.6942    -5.3408 H       
  49 H49           -5.8597    -0.1441    -5.7230 H       
  50 H50           -4.9865    -1.6734    -5.9822 H       
@<TRIPOS>BOND
   1    1    6 ar
   2    1    7 1
   3    1    2 ar
   4    2    3 ar
   5    2   25 1
   6    3    4 ar
   7    3   26 1
   8    4    5 ar
   9    4   11 1
  10    5    6 ar
  11    5   28 1
  12    6   10 1
  13    7    8 1
  14    8    9 1
  15    8   29 1
  16    8   30 1
  17    9   10 am
  18    9   19 1
  19   10   18 2
  20   11   12 1
  21   11   31 1
  22   11   32 1
  23   12   14 ar
  24   12   13 ar
  25   13   17 ar
  26   13   33 1
  27   14   15 ar
  28   14   34 1
  29   15   16 ar
  30   15   35 1
  31   16   17 ar
  32   16   27 1
  33   19   21 1
  34   19   20 1
  35   19   36 1
  36   20   23 1
  37   20   37 1
  38   20   38 1
  39   21   22 1
  40   21   24 1
  41   21   39 1
  42   22   23 1
  43   22   40 1
  44   22   41 1
  45   23   42 1
  46   23   43 1
  47   24   44 1
  48   26   45 1
  49   26   46 1
  50   26   47 1
  51   27   48 1
  52   27   49 1
  53   27   50 1

#	End of record

