#	Name: ASD05430054
#	Creating user name:	WinNT
#	Creation time:	15. 06. 2019 20:59

#	Modifying user name:	WinNT
#	Modification time:	15. 06. 2019 20:59

#	Program:	/corina/corina34_cracker 3.40 0067  02.08.2006

@<TRIPOS>MOLECULE
ASD05430054
  61   66    0    0    0
SMALL
NO_CHARGES


@<TRIPOS>ATOM
   1 C1            -0.0102     1.3769    -0.1076 C.ar    
   2 C2             0.0179    -0.0065    -0.2789 C.ar    
   3 C3             1.2324    -0.6755    -0.3569 C.ar    
   4 C4             2.4158     0.0246    -0.2648 C.ar    
   5 C5             2.3955     1.4126    -0.0928 C.ar    
   6 C6             1.1727     2.0861    -0.0148 C.ar    
   7 O7             4.9072     0.1332     0.2297 O.3     
   8 C8             4.8317     1.5002     0.0842 C.2     
   9 C9             3.6581     2.1623     0.0057 C.2     
  10 C10            5.9094    -0.3352     1.1325 C.3     
  11 C11            7.3312     0.0936     0.7594 C.3     
  12 N12            7.3060     1.5179     0.4292 N.pl3   
  13 C13            6.1459     2.1863     0.0217 C.2     
  14 C14           -1.5123    -1.6398    -1.3379 C.2     
  15 N15           -1.1832    -0.7242    -0.3723 N.pl3   
  16 C16           -2.7499    -2.0850    -1.0478 C.2     
  17 N17           -3.1693    -1.4616     0.0631 N.2     
  18 C18           -2.2397    -0.6440     0.4773 C.2     
  19 C19           -3.5289    -3.1065    -1.8356 C.3     
  20 C20            8.3707     2.5171     0.4586 C.3     
  21 O21            7.8334     3.5947    -0.3380 O.3     
  22 N22            6.4302     3.3720    -0.3920 N.2     
  23 C23            8.6300     2.9770     1.8700 C.ar    
  24 C24            9.6489     1.9631    -0.1740 C.3     
  25 O25           10.7041     2.9156    -0.0279 O.3     
  26 C26            8.3162     2.1518     2.9339 C.ar    
  27 C27            9.1867     4.2213     2.0998 C.ar    
  28 C28            9.4258     4.6437     3.3937 C.ar    
  29 C29            9.1071     3.8203     4.4602 C.ar    
  30 C30            8.5540     2.5723     4.2288 C.ar    
  31 F31            9.3404     4.2323     5.7256 F       
  32 C32           -1.1550     3.4465     0.1389 C.3     
  33 O33           -1.2010     2.0291    -0.0373 O.3     
  34 C34            5.5676    -0.0896     2.6092 C.3     
  35 O35            4.9786    -1.4060     2.5711 O.3     
  36 C36            5.7911    -1.8314     1.4574 C.3     
  37 H37            1.2495    -1.7472    -0.4896 H       
  38 H38            3.3588    -0.4984    -0.3251 H       
  39 H39            1.1524     3.1578     0.1176 H       
  40 H40            3.6456     3.2422     0.0152 H       
  41 H41            8.0002    -0.0766     1.6030 H       
  42 H42            7.6734    -0.4780    -0.1033 H       
  43 H43           -0.8988    -1.9427    -2.1735 H       
  44 H44           -2.3004    -0.0103     1.3498 H       
  45 H45           -3.3122    -4.1035    -1.4521 H       
  46 H46           -4.5955    -2.9038    -1.7388 H       
  47 H47           -3.2423    -3.0510    -2.8858 H       
  48 H48            9.9270     1.0337     0.3229 H       
  49 H49            9.4766     1.7714    -1.2331 H       
  50 H50           11.5467     2.6303    -0.4071 H       
  51 H51            7.8847     1.1784     2.7531 H       
  52 H52            9.4353     4.8634     1.2677 H       
  53 H53            9.8614     5.6156     3.5729 H       
  54 H54            8.3046     1.9293     5.0599 H       
  55 H55           -2.1704     3.8408     0.1787 H       
  56 H56           -0.6377     3.6803     1.0694 H       
  57 H57           -0.6219     3.8994    -0.6970 H       
  58 H58            6.4405    -0.0152     3.2578 H       
  59 H59            4.8465     0.7122     2.7679 H       
  60 H60            5.2463    -2.4042     0.7070 H       
  61 H61            6.7330    -2.2953     1.7500 H       
@<TRIPOS>BOND
   1    1    2 ar
   2    1    6 ar
   3    1   33 1
   4    2    3 ar
   5    2   15 1
   6    3    4 ar
   7    3   37 1
   8    4    5 ar
   9    4   38 1
  10    5    6 ar
  11    5    9 1
  12    6   39 1
  13    7    8 1
  14    7   10 1
  15    8    9 2
  16    8   13 1
  17    9   40 1
  18   10   11 1
  19   10   34 1
  20   10   36 1
  21   11   12 1
  22   11   41 1
  23   11   42 1
  24   12   13 1
  25   12   20 1
  26   13   22 2
  27   14   15 1
  28   14   16 2
  29   14   43 1
  30   15   18 1
  31   16   17 1
  32   16   19 1
  33   17   18 2
  34   18   44 1
  35   19   45 1
  36   19   46 1
  37   19   47 1
  38   20   21 1
  39   20   23 1
  40   20   24 1
  41   21   22 1
  42   23   26 ar
  43   23   27 ar
  44   24   25 1
  45   24   48 1
  46   24   49 1
  47   25   50 1
  48   26   30 ar
  49   26   51 1
  50   27   28 ar
  51   27   52 1
  52   28   29 ar
  53   28   53 1
  54   29   30 ar
  55   29   31 1
  56   30   54 1
  57   32   33 1
  58   32   55 1
  59   32   56 1
  60   32   57 1
  61   34   35 1
  62   34   58 1
  63   34   59 1
  64   35   36 1
  65   36   60 1
  66   36   61 1

#	End of record

