#	Name: ASD01418060
#	Creating user name:	WinNT
#	Creation time:	15. 06. 2019 19:20

#	Modifying user name:	WinNT
#	Modification time:	15. 06. 2019 19:20

#	Program:	/corina/corina34_cracker 3.40 0067  02.08.2006

@<TRIPOS>MOLECULE
ASD01418060
  70   73    0    0    0
SMALL
NO_CHARGES


@<TRIPOS>ATOM
   1 C1            -0.3964     1.6039     1.3383 C.ar    
   2 C2            -0.0219     0.2523     1.3525 C.ar    
   3 C3            -0.7912    -0.6822     0.7277 C.ar    
   4 C4            -1.9623    -0.2953     0.0676 C.ar    
   5 C5            -2.3492     1.0599     0.0469 C.ar    
   6 C6            -1.5632     2.0040     0.6893 C.ar    
   7 C7            -2.9890    -1.0187    -0.6815 C.2     
   8 C8            -3.8914    -0.1100    -1.0916 C.2     
   9 N9            -3.5262     1.1352    -0.6664 N.pl3   
  10 C10           -1.3512     4.7982    -2.3146 C.ar    
  11 C11           -0.6769     5.6651    -1.4784 C.ar    
  12 C12           -1.3113     6.1974    -0.3707 C.ar    
  13 C13           -2.6281     5.8654    -0.0907 C.ar    
  14 C14           -3.3158     4.9996    -0.9176 C.ar    
  15 C15           -2.6820     4.4619    -2.0425 C.ar    
  16 C16           -3.0284    -2.5021    -0.9442 C.3     
  17 C17           -4.3069    -3.0923    -0.3459 C.3     
  18 C18           -4.3469    -4.5983    -0.6126 C.3     
  19 C19           -4.3266    -4.8497    -2.1217 C.3     
  20 C20           -3.0480    -4.2596    -2.7199 C.3     
  21 C21           -3.0081    -2.7536    -2.4532 C.3     
  22 C22            0.4451     2.6055     2.0184 C.2     
  23 O23            1.6334     2.2440     2.5411 O.3     
  24 C24           -4.2741     2.3672    -0.9288 C.3     
  25 C25           -3.4075     3.5389    -2.9293 C.2     
  26 C26           -4.2770     2.6474    -2.4096 C.2     
  27 C27           -5.2219     1.9533    -3.2830 C.2     
  28 O28           -6.1840     1.1717    -2.7502 O.3     
  29 O29           -5.1407     2.0804    -4.4898 O.2     
  30 C30           -7.0654     0.5146    -3.6631 C.3     
  31 F31           -3.2395     6.3898     0.9939 F       
  32 O32            0.0671     3.7568     2.1075 O.2     
  33 C33           -6.2763    -0.5004    -4.4926 C.3     
  34 C34           -8.1628    -0.2095    -2.8806 C.3     
  35 C35           -7.7007     1.5498    -4.5934 C.3     
  36 C36            2.4087     3.2824     3.1962 C.3     
  37 Br37          -0.4810     4.0729    -3.8287 Br      
  38 H38            0.8817    -0.0492     1.8614 H       
  39 H39           -0.4970    -1.7212     0.7417 H       
  40 H40           -1.8494     3.0453     0.6803 H       
  41 H41           -4.7745    -0.3321    -1.6723 H       
  42 H42            0.3490     5.9283    -1.6896 H       
  43 H43           -0.7781     6.8749     0.2799 H       
  44 H44           -4.3413     4.7413    -0.6986 H       
  45 H45           -2.1604    -2.9755    -0.4853 H       
  46 H46           -4.3214    -2.9131     0.7292 H       
  47 H47           -5.1749    -2.6189    -0.8048 H       
  48 H48           -3.4789    -5.0717    -0.1537 H       
  49 H49           -5.2578    -5.0187    -0.1864 H       
  50 H50           -4.3551    -5.9227    -2.3116 H       
  51 H51           -5.1946    -4.3764    -2.5806 H       
  52 H52           -2.1800    -4.7330    -2.2610 H       
  53 H53           -3.0336    -4.4387    -3.7950 H       
  54 H54           -3.8761    -2.2802    -2.9121 H       
  55 H55           -2.0972    -2.3331    -2.8794 H       
  56 H56           -5.2999     2.2511    -0.5790 H       
  57 H57           -3.8026     3.1975    -0.4029 H       
  58 H58           -3.2441     3.5749    -3.9963 H       
  59 H59           -5.8237    -1.2379    -3.8299 H       
  60 H60           -6.9486    -1.0016    -5.1889 H       
  61 H61           -5.4944     0.0154    -5.0501 H       
  62 H62           -8.6711     0.4995    -2.2270 H       
  63 H63           -8.8814    -0.6410    -3.5773 H       
  64 H64           -7.7177    -1.0027    -2.2799 H       
  65 H65           -6.9188     2.0657    -5.1508 H       
  66 H66           -8.3730     1.0486    -5.2897 H       
  67 H67           -8.2628     2.2729    -4.0024 H       
  68 H68            3.3401     2.8584     3.5713 H       
  69 H69            2.6319     4.0746     2.4816 H       
  70 H70            1.8360     3.6936     4.0274 H       
@<TRIPOS>BOND
   1    1    2 ar
   2    1   22 1
   3    1    6 ar
   4    2    3 ar
   5    2   38 1
   6    3    4 ar
   7    3   39 1
   8    4    5 ar
   9    4    7 1
  10    5    6 ar
  11    5    9 1
  12    6   40 1
  13    7    8 2
  14    7   16 1
  15    8    9 1
  16    8   41 1
  17    9   24 1
  18   10   11 ar
  19   10   37 1
  20   10   15 ar
  21   11   12 ar
  22   11   42 1
  23   12   13 ar
  24   12   43 1
  25   13   14 ar
  26   13   31 1
  27   14   15 ar
  28   14   44 1
  29   15   25 1
  30   16   17 1
  31   16   21 1
  32   16   45 1
  33   17   18 1
  34   17   46 1
  35   17   47 1
  36   18   19 1
  37   18   48 1
  38   18   49 1
  39   19   20 1
  40   19   50 1
  41   19   51 1
  42   20   21 1
  43   20   52 1
  44   20   53 1
  45   21   54 1
  46   21   55 1
  47   22   23 1
  48   22   32 2
  49   23   36 1
  50   24   26 1
  51   24   56 1
  52   24   57 1
  53   25   26 2
  54   25   58 1
  55   26   27 1
  56   27   28 1
  57   27   29 2
  58   28   30 1
  59   30   33 1
  60   30   34 1
  61   30   35 1
  62   33   59 1
  63   33   60 1
  64   33   61 1
  65   34   62 1
  66   34   63 1
  67   34   64 1
  68   35   65 1
  69   35   66 1
  70   35   67 1
  71   36   68 1
  72   36   69 1
  73   36   70 1

#	End of record

