#	Name: ASD05740160
#	Creating user name:	WinNT
#	Creation time:	15. 06. 2019 21:02

#	Modifying user name:	WinNT
#	Modification time:	15. 06. 2019 21:02

#	Program:	/corina/corina34_cracker 3.40 0067  02.08.2006

@<TRIPOS>MOLECULE
ASD05740160
  65   69    0    0    0
SMALL
NO_CHARGES


@<TRIPOS>ATOM
   1 C1            -0.0691    -1.3186    -4.5598 C.3     
   2 N2            -0.5720    -0.4870    -3.4566 N.3     
   3 C3            -1.8220    -0.9381    -3.0182 C.ar    
   4 C4            -2.4707    -0.2845    -1.9786 C.ar    
   5 C5            -3.7040    -0.7296    -1.5460 C.ar    
   6 C6            -4.2956    -1.8312    -2.1501 C.ar    
   7 C7            -3.6469    -2.4851    -3.1893 C.ar    
   8 C8            -2.4166    -2.0360    -3.6264 C.ar    
   9 N9            -5.5466    -2.2831    -1.7109 N.pl3   
  10 C10           -6.5090    -1.3748    -1.3151 C.ar    
  11 N11           -6.2630    -0.0776    -1.4634 N.ar    
  12 N12           -7.6446    -1.8304    -0.8068 N.ar    
  13 C13           -8.5910    -0.9866    -0.4162 C.ar    
  14 C14           -8.3623     0.4003    -0.5535 C.ar    
  15 C15           -7.1492     0.8326    -1.1012 C.ar    
  16 N16           -9.7765    -1.4275     0.1130 N.am    
  17 C17          -10.7253    -0.5580     0.5034 C.2     
  18 C18          -10.5488     0.8357     0.3882 C.2     
  19 C19           -9.3964     1.3382    -0.1272 C.2     
  20 C20          -10.0132    -2.8662     0.2546 C.3     
  21 O21          -11.7666    -0.9870     0.9694 O.2     
  22 C22           -8.6795    -4.5038     1.5981 C.ar    
  23 C23           -9.4320    -3.3448     1.5601 C.ar    
  24 C24           -8.1464    -4.9427     2.7956 C.ar    
  25 C25           -8.3657    -4.2228     3.9551 C.ar    
  26 C26           -9.1179    -3.0636     3.9170 C.ar    
  27 C27           -9.6510    -2.6246     2.7195 C.ar    
  28 N28          -12.1429    -2.3675    -0.8467 N.3     
  29 C29            0.3936    -0.4517    -2.3487 C.3     
  30 C30            1.7267     0.1025    -2.8582 C.3     
  31 O31            2.1846    -0.6996    -3.9502 O.3     
  32 C32            1.2686    -0.7556    -5.0471 C.3     
  33 C33          -11.5185    -3.1397     0.2358 C.3     
  34 C34          -11.6857    -2.8386    -2.1609 C.3     
  35 C35          -13.6080    -2.4161    -0.7506 C.3     
  36 H36            0.0722    -2.3411    -4.2096 H       
  37 H37           -0.7878    -1.3098    -5.3791 H       
  38 H38           -2.0103     0.5718    -1.5083 H       
  39 H39           -4.2084    -0.2213    -0.7376 H       
  40 H40           -4.1067    -3.3423    -3.6586 H       
  41 H41           -1.9120    -2.5446    -4.4346 H       
  42 H42           -5.7371    -3.2338    -1.6847 H       
  43 H43           -6.9405     1.8855    -1.2206 H       
  44 H44          -11.3317     1.5061     0.7109 H       
  45 H45           -9.2497     2.4042    -0.2200 H       
  46 H46           -9.5374    -3.3958    -0.5708 H       
  47 H47           -8.5119    -5.0687     0.6930 H       
  48 H48           -7.5587    -5.8484     2.8253 H       
  49 H49           -7.9498    -4.5661     4.8907 H       
  50 H50           -9.2893    -2.5011     4.8229 H       
  51 H51          -10.2389    -1.7191     2.6898 H       
  52 H52            0.0126     0.1898    -1.5541 H       
  53 H53            0.5423    -1.4604    -1.9632 H       
  54 H54            1.5890     1.1303    -3.1942 H       
  55 H55            2.4625     0.0772    -2.0544 H       
  56 H56            1.6731    -1.4016    -5.8264 H       
  57 H57            1.1176     0.2472    -5.4468 H       
  58 H58          -11.6925    -4.2030     0.0708 H       
  59 H59          -11.9534    -2.8442     1.1906 H       
  60 H60          -12.1083    -2.2054    -2.9410 H       
  61 H61          -10.5976    -2.7922    -2.2050 H       
  62 H62          -12.0119    -3.8676    -2.3117 H       
  63 H63          -13.9427    -3.4510    -0.8215 H       
  64 H64          -13.9235    -1.9968     0.2048 H       
  65 H65          -14.0448    -1.8364    -1.5638 H       
@<TRIPOS>BOND
   1    1    2 1
   2    1   32 1
   3    1   36 1
   4    1   37 1
   5    2    3 1
   6    2   29 1
   7    3    4 ar
   8    3    8 ar
   9    4    5 ar
  10    4   38 1
  11    5    6 ar
  12    5   39 1
  13    6    7 ar
  14    6    9 1
  15    7    8 ar
  16    7   40 1
  17    8   41 1
  18    9   10 1
  19    9   42 1
  20   10   11 ar
  21   10   12 ar
  22   11   15 ar
  23   12   13 ar
  24   13   14 ar
  25   13   16 1
  26   14   15 ar
  27   14   19 1
  28   15   43 1
  29   16   17 am
  30   16   20 1
  31   17   18 1
  32   17   21 2
  33   18   19 2
  34   18   44 1
  35   19   45 1
  36   20   33 1
  37   20   23 1
  38   20   46 1
  39   22   23 ar
  40   22   24 ar
  41   22   47 1
  42   23   27 ar
  43   24   25 ar
  44   24   48 1
  45   25   26 ar
  46   25   49 1
  47   26   27 ar
  48   26   50 1
  49   27   51 1
  50   28   34 1
  51   28   35 1
  52   28   33 1
  53   29   30 1
  54   29   52 1
  55   29   53 1
  56   30   31 1
  57   30   54 1
  58   30   55 1
  59   31   32 1
  60   32   56 1
  61   32   57 1
  62   33   58 1
  63   33   59 1
  64   34   60 1
  65   34   61 1
  66   34   62 1
  67   35   63 1
  68   35   64 1
  69   35   65 1

#	End of record

