#	Name: ASD03430100
#	Creating user name:	WinNT
#	Creation time:	15. 06. 2019 20:40

#	Modifying user name:	WinNT
#	Modification time:	15. 06. 2019 20:40

#	Program:	/corina/corina34_cracker 3.40 0067  02.08.2006

@<TRIPOS>MOLECULE
ASD03430100
  62   66    0    0    0
SMALL
NO_CHARGES


@<TRIPOS>ATOM
   1 C1             0.0503     1.3742    -0.0607 C.ar    
   2 C2             0.0469    -0.0120    -0.0438 C.ar    
   3 C3             1.2365    -0.7096    -0.0382 C.ar    
   4 C4             2.4530    -0.0336    -0.0408 C.ar    
   5 C5             2.4529     1.3574    -0.0639 C.ar    
   6 C6             1.2596     2.0597    -0.0720 C.ar    
   7 O7             3.5023    -0.9042    -0.0034 O.3     
   8 C8             1.5620    -2.1788    -0.0417 C.3     
   9 C9             3.0516    -2.2096    -0.4123 C.3     
  10 C10            0.4097    -3.8632     1.0323 C.ar    
  11 C11            1.3029    -2.8265     1.2858 C.ar    
  12 C12            0.7291    -2.9462    -1.0280 C.2     
  13 N13            0.0946    -3.9077    -0.3281 N.am    
  14 O14            0.6438    -2.7409    -2.2203 O.2     
  15 C15            1.7548    -2.5873     2.5707 C.ar    
  16 C16            1.3186    -3.3886     3.6198 C.ar    
  17 C17            0.4345    -4.4208     3.3728 C.ar    
  18 C18           -0.0192    -4.6599     2.0916 C.ar    
  19 N19            2.6505    -1.5400     2.8146 N.am    
  20 O20           -1.1334     2.0472    -0.0716 O.3     
  21 C21           -1.0886     3.4322     0.2891 C.3     
  22 C22            0.0782     4.0861    -0.4635 C.3     
  23 O23            1.2870     3.4209    -0.0855 O.3     
  24 C24           -0.8190    -4.8854    -0.9244 C.3     
  25 C25            3.4773    -1.5942     3.8775 C.2     
  26 N26            4.3946    -0.6253     4.0679 N.am    
  27 O27            3.3958    -2.5173     4.6647 O.2     
  28 C28            5.2934    -0.6843     5.2233 C.3     
  29 C29            6.2290     0.5262     5.2039 C.3     
  30 C30            7.1676     0.4646     6.4106 C.3     
  31 C31            8.1032     1.6751     6.3912 C.3     
  32 C32            9.0419     1.6135     7.5979 C.3     
  33 C33            9.9774     2.8240     7.5785 C.3     
  34 H34           -0.8909    -0.5477    -0.0346 H       
  35 H35            3.3904     1.8934    -0.0753 H       
  36 H36            3.1805    -2.3447    -1.4862 H       
  37 H37            3.5724    -2.9901     0.1424 H       
  38 H38            1.6695    -3.2044     4.6245 H       
  39 H39            0.0967    -5.0446     4.1871 H       
  40 H40           -0.7106    -5.4692     1.9092 H       
  41 H41            2.6762    -0.7751     2.2186 H       
  42 H42           -2.0243     3.9158     0.0085 H       
  43 H43           -0.9326     3.5275     1.3637 H       
  44 H44           -0.0743     3.9841    -1.5380 H       
  45 H45            0.1404     5.1418    -0.1992 H       
  46 H46           -1.8345    -4.4895    -0.9105 H       
  47 H47           -0.5197    -5.0816    -1.9540 H       
  48 H48           -0.7827    -5.8126    -0.3525 H       
  49 H49            4.4597     0.1111     3.4398 H       
  50 H50            4.7060    -0.6748     6.1414 H       
  51 H51            5.8830    -1.5999     5.1786 H       
  52 H52            6.8164     0.5168     4.2858 H       
  53 H53            5.6394     1.4419     5.2486 H       
  54 H54            6.5802     0.4741     7.3287 H       
  55 H55            7.7572    -0.4510     6.3659 H       
  56 H56            8.6906     1.6657     5.4731 H       
  57 H57            7.5136     2.5908     6.4359 H       
  58 H58            8.4544     1.6230     8.5160 H       
  59 H59            9.6315     0.6979     7.5532 H       
  60 H60           10.5649     2.8146     6.6604 H       
  61 H61            9.3878     3.7397     7.6232 H       
  62 H62           10.6462     2.7801     8.4381 H       
@<TRIPOS>BOND
   1    1    2 ar
   2    1    6 ar
   3    1   20 1
   4    2    3 ar
   5    2   34 1
   6    3    4 ar
   7    3    8 1
   8    4    5 ar
   9    4    7 1
  10    5    6 ar
  11    5   35 1
  12    6   23 1
  13    7    9 1
  14    8    9 1
  15    8   11 1
  16    8   12 1
  17    9   36 1
  18    9   37 1
  19   10   11 ar
  20   10   13 1
  21   10   18 ar
  22   11   15 ar
  23   12   13 am
  24   12   14 2
  25   13   24 1
  26   15   16 ar
  27   15   19 1
  28   16   17 ar
  29   16   38 1
  30   17   18 ar
  31   17   39 1
  32   18   40 1
  33   19   25 am
  34   19   41 1
  35   20   21 1
  36   21   22 1
  37   21   42 1
  38   21   43 1
  39   22   23 1
  40   22   44 1
  41   22   45 1
  42   24   46 1
  43   24   47 1
  44   24   48 1
  45   25   26 am
  46   25   27 2
  47   26   28 1
  48   26   49 1
  49   28   29 1
  50   28   50 1
  51   28   51 1
  52   29   30 1
  53   29   52 1
  54   29   53 1
  55   30   31 1
  56   30   54 1
  57   30   55 1
  58   31   32 1
  59   31   56 1
  60   31   57 1
  61   32   33 1
  62   32   58 1
  63   32   59 1
  64   33   60 1
  65   33   61 1
  66   33   62 1

#	End of record

