#	Name: ASD08070130
#	Creating user name:	WinNT
#	Creation time:	15. 06. 2019 21:14

#	Modifying user name:	WinNT
#	Modification time:	15. 06. 2019 21:14

#	Program:	/corina/corina34_cracker 3.40 0067  02.08.2006

@<TRIPOS>MOLECULE
ASD08070130
  39   40    0    0    0
SMALL
NO_CHARGES


@<TRIPOS>ATOM
   1 C1            -0.0165     1.3662     0.0096 C.2     
   2 C2             0.0021    -0.0041     0.0020 C.2     
   3 C3            -1.1396    -0.8413     0.0080 C.2     
   4 C4            -0.9919    -2.1898    -0.0006 C.2     
   5 N5            -1.9860    -4.3661    -0.0032 N.am    
   6 C6            -2.1327    -3.0264     0.0054 C.2     
   7 C7            -3.1673    -5.2325     0.0030 C.3     
   8 C8            -2.8111    -6.5850    -0.6172 C.3     
   9 C9            -2.4584    -6.3921    -2.0934 C.3     
  10 O10           -3.2474    -2.5360     0.0182 O.2     
  11 C11           -2.1075    -7.7243    -2.7043 C.ar    
  12 C12            1.2389     1.9253     0.0006 C.2     
  13 C13            2.2511     1.0494    -0.0138 C.2     
  14 S14            1.6717    -0.5553    -0.0169 S.3     
  15 C15           -3.6397    -5.4404     1.4433 C.3     
  16 C16           -3.0946    -8.5019    -3.2805 C.ar    
  17 C17           -0.7978    -8.1662    -2.6934 C.ar    
  18 C18           -0.4759    -9.3883    -3.2538 C.ar    
  19 C19           -1.4639   -10.1686    -3.8246 C.ar    
  20 C20           -2.7727    -9.7239    -3.8408 C.ar    
  21 H21           -0.9262     1.9483     0.0172 H       
  22 H22           -2.1281    -0.4065     0.0194 H       
  23 H23           -0.0034    -2.6246    -0.0120 H       
  24 H24           -1.0981    -4.7567    -0.0134 H       
  25 H25           -3.9635    -4.7654    -0.5766 H       
  26 H26           -1.9565    -7.0117    -0.0922 H       
  27 H27           -3.6633    -7.2594    -0.5324 H       
  28 H28           -3.3130    -5.9655    -2.6184 H       
  29 H29           -1.6062    -5.7178    -2.1782 H       
  30 H30            1.3974     2.9936     0.0045 H       
  31 H31            3.2960     1.3223    -0.0226 H       
  32 H32           -3.8935    -4.4769     1.8852 H       
  33 H33           -4.5187    -6.0850     1.4479 H       
  34 H34           -2.8436    -5.9076     2.0230 H       
  35 H35           -4.1172    -8.1548    -3.2927 H       
  36 H36           -0.0258    -7.5566    -2.2475 H       
  37 H37            0.5475    -9.7332    -3.2459 H       
  38 H38           -1.2124   -11.1231    -4.2627 H       
  39 H39           -3.5446   -10.3336    -4.2868 H       
@<TRIPOS>BOND
   1    1    2 2
   2    1   12 1
   3    1   21 1
   4    2    3 1
   5    2   14 1
   6    3    4 2
   7    3   22 1
   8    4    6 1
   9    4   23 1
  10    5    7 1
  11    5    6 am
  12    5   24 1
  13    6   10 2
  14    7    8 1
  15    7   15 1
  16    7   25 1
  17    8    9 1
  18    8   26 1
  19    8   27 1
  20    9   11 1
  21    9   28 1
  22    9   29 1
  23   11   16 ar
  24   11   17 ar
  25   12   13 2
  26   12   30 1
  27   13   14 1
  28   13   31 1
  29   15   32 1
  30   15   33 1
  31   15   34 1
  32   16   20 ar
  33   16   35 1
  34   17   18 ar
  35   17   36 1
  36   18   19 ar
  37   18   37 1
  38   19   20 ar
  39   19   38 1
  40   20   39 1

#	End of record

