#	Name: ASD09360008
#	Creating user name:	WinNT
#	Creation time:	15. 06. 2019 21:21

#	Modifying user name:	WinNT
#	Modification time:	15. 06. 2019 21:21

#	Program:	/corina/corina34_cracker 3.40 0067  02.08.2006

@<TRIPOS>MOLECULE
ASD09360008
  99  105    0    0    0
SMALL
NO_CHARGES


@<TRIPOS>ATOM
   1 N1            -0.1288     0.9983     0.1330 N.am    
   2 C2             0.0871    -0.3251     0.0233 C.2     
   3 C3            -1.1885    -1.0251    -0.2312 C.2     
   4 C4            -2.1925    -0.1175    -0.2770 C.2     
   5 C5            -1.5666     1.2369    -0.0391 C.3     
   6 C6             0.8426     1.9720     0.3740 C.ar    
   7 C7            -2.1475     1.8655     1.2013 C.ar    
   8 C8            -3.6128    -0.3960    -0.5074 C.2     
   9 O9             1.1716    -0.8649     0.1191 O.2     
  10 O10           -1.3310    -2.3607    -0.3933 O.3     
  11 O11           -4.2508    -1.0256     0.3157 O.2     
  12 C12           -4.2700     0.0877    -1.7387 C.ar    
  13 C13           -3.0460     2.9066     1.0894 C.ar    
  14 C14           -3.5830     3.4869     2.2378 C.ar    
  15 C15           -3.2082     3.0109     3.4932 C.ar    
  16 C16           -2.3086     1.9689     3.5928 C.ar    
  17 C17           -1.7832     1.3937     2.4499 C.ar    
  18 C18            2.1745     1.6020     0.5231 C.ar    
  19 C19            3.1349     2.5617     0.7615 C.ar    
  20 C20            2.7700     3.9041     0.8525 C.ar    
  21 C21            1.4340     4.2731     0.7023 C.ar    
  22 C22            0.4774     3.3109     0.4588 C.ar    
  23 C23           -5.6332    -0.1460    -1.9422 C.ar    
  24 C24           -6.2444     0.3056    -3.0895 C.ar    
  25 C25           -5.5039     0.9965    -4.0497 C.ar    
  26 C26           -4.1429     1.2300    -3.8480 C.ar    
  27 C27           -3.5306     0.7846    -2.6989 C.ar    
  28 C28            3.8018     4.9385     1.1095 C.ar    
  29 C29            3.4385     6.2798     1.2007 C.ar    
  30 C30            4.4067     7.2409     1.4413 C.ar    
  31 C31            5.7348     6.8663     1.5903 C.ar    
  32 C32            6.0961     5.5349     1.4995 C.ar    
  33 C33            5.1372     4.5700     1.2661 C.ar    
  34 O34            4.0561     8.5509     1.5310 O.3     
  35 C35           -4.5486     4.6064     2.1243 C.ar    
  36 C36           -4.9991     5.2575     3.2730 C.ar    
  37 C37           -5.8955     6.2968     3.1689 C.ar    
  38 C38           -6.3544     6.6998     1.9118 C.ar    
  39 C39           -5.9023     6.0467     0.7619 C.ar    
  40 C40           -5.0015     5.0114     0.8683 C.ar    
  41 C41           -6.1636     1.4823    -5.2852 C.ar    
  42 C42           -5.4074     2.0747    -6.2957 C.ar    
  43 C43           -6.0269     2.5251    -7.4435 C.ar    
  44 C44           -7.3956     2.3898    -7.5927 C.ar    
  45 C45           -8.1512     1.8033    -6.5932 C.ar    
  46 C46           -7.5418     1.3435    -5.4436 C.ar    
  47 C47            5.6051    15.7330     2.5177 C.3     
  48 C48           -7.3159     7.8138     1.7988 C.2     
  49 O49           -7.6787     8.2700     0.5840 O.3     
  50 O50           -7.7803     8.3195     2.8011 O.2     
  51 C51           -8.6283     9.3678     0.5487 C.3     
  52 C52            5.1059     9.4878     1.7806 C.3     
  53 C53            4.5230    10.9008     1.8481 C.3     
  54 C54            5.6469    11.9039     2.1154 C.3     
  55 C55            5.0640    13.3169     2.1829 C.3     
  56 C56            6.1880    14.3200     2.4502 C.3     
  57 H57           -1.7331     1.8834    -0.9007 H       
  58 H58           -0.5026    -2.8554    -0.3284 H       
  59 H59           -3.3325     3.2716     0.1142 H       
  60 H60           -3.6207     3.4568     4.3862 H       
  61 H61           -2.0175     1.5993     4.5649 H       
  62 H62           -1.0796     0.5786     2.5326 H       
  63 H63            2.4567     0.5620     0.4525 H       
  64 H64            4.1693     2.2737     0.8779 H       
  65 H65            1.1492     5.3125     0.7728 H       
  66 H66           -0.5576     3.5963     0.3420 H       
  67 H67           -6.2064    -0.6810    -1.1994 H       
  68 H68           -7.2974     0.1248    -3.2471 H       
  69 H69           -3.5709     1.7645    -4.5920 H       
  70 H70           -2.4773     0.9654    -2.5431 H       
  71 H71            2.4048     6.5699     1.0838 H       
  72 H72            6.4883     7.6171     1.7775 H       
  73 H73            7.1310     5.2486     1.6155 H       
  74 H74            5.4226     3.5308     1.1957 H       
  75 H75           -4.6446     4.9456     4.2443 H       
  76 H76           -6.2443     6.8005     4.0584 H       
  77 H77           -6.2561     6.3571    -0.2102 H       
  78 H78           -4.6517     4.5067    -0.0201 H       
  79 H79           -4.3388     2.1811    -6.1803 H       
  80 H80           -5.4423     2.9844    -8.2269 H       
  81 H81           -7.8762     2.7438    -8.4927 H       
  82 H82           -9.2194     1.7007    -6.7149 H       
  83 H83           -8.1327     0.8858    -4.6640 H       
  84 H84            6.4058    16.4476     2.7081 H       
  85 H85            5.1221    15.9724     1.5704 H       
  86 H86            4.8721    15.7856     3.3228 H       
  87 H87           -9.5546     9.0628     1.0356 H       
  88 H88           -8.2092    10.2277     1.0712 H       
  89 H89           -8.8341     9.6371    -0.4873 H       
  90 H90            5.5889     9.2484     2.7280 H       
  91 H91            5.8389     9.4352     0.9756 H       
  92 H92            4.0400    11.1402     0.9008 H       
  93 H93            3.7900    10.9534     2.6532 H       
  94 H94            6.1299    11.6645     3.0628 H       
  95 H95            6.3799    11.8513     1.3104 H       
  96 H96            4.5810    13.5563     1.2356 H       
  97 H97            4.3311    13.3695     2.9880 H       
  98 H98            6.9209    14.2674     1.6452 H       
  99 H99            6.6710    14.0806     3.3976 H       
@<TRIPOS>BOND
   1    1    2 am
   2    1    6 1
   3    1    5 1
   4    2    3 1
   5    2    9 2
   6    3    4 2
   7    3   10 1
   8    4    5 1
   9    4    8 1
  10    5    7 1
  11    5   57 1
  12    6   18 ar
  13    6   22 ar
  14    7   13 ar
  15    7   17 ar
  16    8   11 2
  17    8   12 1
  18   10   58 1
  19   12   23 ar
  20   12   27 ar
  21   13   14 ar
  22   13   59 1
  23   14   15 ar
  24   14   35 1
  25   15   16 ar
  26   15   60 1
  27   16   17 ar
  28   16   61 1
  29   17   62 1
  30   18   19 ar
  31   18   63 1
  32   19   20 ar
  33   19   64 1
  34   20   21 ar
  35   20   28 1
  36   21   22 ar
  37   21   65 1
  38   22   66 1
  39   23   24 ar
  40   23   67 1
  41   24   25 ar
  42   24   68 1
  43   25   26 ar
  44   25   41 1
  45   26   27 ar
  46   26   69 1
  47   27   70 1
  48   28   29 ar
  49   28   33 ar
  50   29   30 ar
  51   29   71 1
  52   30   31 ar
  53   30   34 1
  54   31   32 ar
  55   31   72 1
  56   32   33 ar
  57   32   73 1
  58   33   74 1
  59   34   52 1
  60   35   36 ar
  61   35   40 ar
  62   36   37 ar
  63   36   75 1
  64   37   38 ar
  65   37   76 1
  66   38   39 ar
  67   38   48 1
  68   39   40 ar
  69   39   77 1
  70   40   78 1
  71   41   42 ar
  72   41   46 ar
  73   42   43 ar
  74   42   79 1
  75   43   44 ar
  76   43   80 1
  77   44   45 ar
  78   44   81 1
  79   45   46 ar
  80   45   82 1
  81   46   83 1
  82   47   56 1
  83   47   84 1
  84   47   85 1
  85   47   86 1
  86   48   49 1
  87   48   50 2
  88   49   51 1
  89   51   87 1
  90   51   88 1
  91   51   89 1
  92   52   53 1
  93   52   90 1
  94   52   91 1
  95   53   54 1
  96   53   92 1
  97   53   93 1
  98   54   55 1
  99   54   94 1
 100   54   95 1
 101   55   56 1
 102   55   96 1
 103   55   97 1
 104   56   98 1
 105   56   99 1

#	End of record

