#	Name: ASD01810553
#	Creating user name:	WinNT
#	Creation time:	15. 06. 2019 19:24

#	Modifying user name:	WinNT
#	Modification time:	15. 06. 2019 19:24

#	Program:	/corina/corina34_cracker 3.40 0067  02.08.2006

@<TRIPOS>MOLECULE
ASD01810553
  46   50    0    0    0
SMALL
NO_CHARGES


@<TRIPOS>ATOM
   1 C1            -0.0166     1.3753     0.0096 C.ar    
   2 C2             0.0021    -0.0041     0.0020 C.ar    
   3 C3             1.2091    -0.6848    -0.0131 C.ar    
   4 C4             2.4041     0.0035    -0.0208 C.ar    
   5 C5             2.4071     1.3943    -0.0134 C.ar    
   6 C6             1.1822     2.0811     0.0019 C.ar    
   7 N7             3.6032     2.0911    -0.0216 N.pl3   
   8 C8             3.6682     3.4322    -0.0147 C.2     
   9 C9             2.5370     4.2098     0.0011 C.2     
  10 C10            1.2082     3.5566     0.0096 C.2     
  11 C11            2.2570     5.6421     0.0120 C.2     
  12 N12            0.9118     5.7622     0.0259 N.am    
  13 N13            0.3123     4.5002     0.0239 N.2     
  14 C14            0.1851     7.0341     0.0405 C.3     
  15 C15           -0.0780     7.4787    -1.3752 C.ar    
  16 O16            3.0739     6.5488     0.0097 O.2     
  17 C17            4.8552     1.3305    -0.0379 C.3     
  18 C18            5.2704     1.0772    -1.4643 C.ar    
  19 C19            6.0824     1.9842    -2.1192 C.ar    
  20 C20            6.4633     1.7519    -3.4276 C.ar    
  21 C21            6.0326     0.6124    -4.0809 C.ar    
  22 C22            5.2213    -0.2951    -3.4257 C.ar    
  23 C23            4.8440    -0.0649    -2.1159 C.ar    
  24 C24           -1.2351     7.0938    -2.0260 C.ar    
  25 N25           -1.4719     7.4785    -3.2648 N.ar    
  26 C26           -0.6238     8.2394    -3.9288 C.ar    
  27 C27            0.5538     8.6633    -3.3430 C.ar    
  28 C28            0.8348     8.2836    -2.0392 C.ar    
  29 H29           -0.9578     1.9050     0.0170 H       
  30 H30           -0.9267    -0.5551     0.0083 H       
  31 H31            1.2140    -1.7648    -0.0186 H       
  32 H32            3.3385    -0.5379    -0.0323 H       
  33 H33            4.6359     3.9117    -0.0215 H       
  34 H34           -0.7628     6.9050     0.5629 H       
  35 H35            0.7826     7.7881     0.5530 H       
  36 H36            5.6328     1.8998     0.4712 H       
  37 H37            4.7087     0.3785     0.4723 H       
  38 H38            6.4190     2.8745    -1.6088 H       
  39 H39            7.0971     2.4609    -3.9395 H       
  40 H40            6.3296     0.4312    -5.1033 H       
  41 H41            4.8845    -1.1852    -3.9362 H       
  42 H42            4.2102    -0.7739    -1.6040 H       
  43 H43           -1.9533     6.4705    -1.5141 H       
  44 H44           -0.8521     8.5345    -4.9423 H       
  45 H45            1.2446     9.2857    -3.8922 H       
  46 H46            1.7473     8.5998    -1.5558 H       
@<TRIPOS>BOND
   1    1    2 ar
   2    1    6 ar
   3    1   29 1
   4    2    3 ar
   5    2   30 1
   6    3    4 ar
   7    3   31 1
   8    4    5 ar
   9    4   32 1
  10    5    6 ar
  11    5    7 1
  12    6   10 1
  13    7    8 1
  14    7   17 1
  15    8    9 2
  16    8   33 1
  17    9   10 1
  18    9   11 1
  19   10   13 2
  20   11   12 am
  21   11   16 2
  22   12   13 1
  23   12   14 1
  24   14   15 1
  25   14   34 1
  26   14   35 1
  27   15   24 ar
  28   15   28 ar
  29   17   18 1
  30   17   36 1
  31   17   37 1
  32   18   19 ar
  33   18   23 ar
  34   19   20 ar
  35   19   38 1
  36   20   21 ar
  37   20   39 1
  38   21   22 ar
  39   21   40 1
  40   22   23 ar
  41   22   41 1
  42   23   42 1
  43   24   25 ar
  44   24   43 1
  45   25   26 ar
  46   26   27 ar
  47   26   44 1
  48   27   28 ar
  49   27   45 1
  50   28   46 1

#	End of record

