#	Name: ASD01816529
#	Creating user name:	WinNT
#	Creation time:	15. 06. 2019 19:35

#	Modifying user name:	WinNT
#	Modification time:	15. 06. 2019 19:35

#	Program:	/corina/corina34_cracker 3.40 0067  02.08.2006

@<TRIPOS>MOLECULE
ASD01816529
  54   59    0    0    0
SMALL
NO_CHARGES


@<TRIPOS>ATOM
   1 C1            -0.0167     1.3813     0.0096 C.ar    
   2 C2             0.0021    -0.0041     0.0020 C.ar    
   3 C3             1.1984    -0.6909    -0.0131 C.ar    
   4 C4             2.4015     0.0059    -0.0204 C.ar    
   5 C5             2.3790     1.4106    -0.0127 C.ar    
   6 C6             1.1663     2.0916     0.0022 C.ar    
   7 N7             3.6053    -0.6772    -0.0347 N.pl3   
   8 C8             4.7970    -0.0586    -0.0423 C.2     
   9 C9             4.9000     1.3103    -0.0359 C.2     
  10 C10            3.6670     2.1301    -0.0207 C.2     
  11 C11            5.9971     2.2729    -0.0416 C.2     
  12 N12            5.4246     3.4960    -0.0306 N.am    
  13 N13            4.0323     3.3799    -0.0183 N.2     
  14 C14            6.1261     4.7076    -0.0307 C.ar    
  15 O15            7.1914     2.0229    -0.0532 O.2     
  16 C16            3.5779    -2.1419    -0.0413 C.3     
  17 C17            3.5555    -2.6375    -1.4643 C.ar    
  18 C18            4.7433    -2.8868    -2.1269 C.ar    
  19 C19            4.7259    -3.3407    -3.4313 C.ar    
  20 C20            3.5142    -3.5470    -4.0770 C.ar    
  21 C21            2.3233    -3.2962    -3.4089 C.ar    
  22 C22            2.3470    -2.8475    -2.1028 C.ar    
  23 N23            3.4934    -4.0071    -5.4010 N.pl3   
  24 C24            2.3885    -4.2483    -6.1424 C.2     
  25 C25            2.7951    -4.6778    -7.3595 C.2     
  26 C26            4.1941    -4.7001    -7.3632 C.2     
  27 N27            4.6135    -4.2927    -6.1923 N.2     
  28 C28            6.4647     5.3162    -1.2332 C.ar    
  29 C29            7.1573     6.5121    -1.2292 C.ar    
  30 C30            7.5130     7.1026    -0.0307 C.ar    
  31 C31            7.1777     6.4988     1.1677 C.ar    
  32 C32            6.4803     5.3069     1.1711 C.ar    
  33 Br33           5.9789     4.5087    -2.8727 Br      
  34 C34            6.1152     4.6505     2.4776 C.3     
  35 H35           -0.9602     1.9068     0.0170 H       
  36 H36           -0.9288    -0.5516     0.0083 H       
  37 H37            1.2004    -1.7709    -0.0189 H       
  38 H38            1.1506     3.1715     0.0077 H       
  39 H39            5.6983    -0.6536    -0.0534 H       
  40 H40            4.4656    -2.5242     0.4626 H       
  41 H41            2.6860    -2.4910     0.4791 H       
  42 H42            5.6855    -2.7261    -1.6242 H       
  43 H43            5.6539    -3.5345    -3.9486 H       
  44 H44            1.3792    -3.4555    -3.9087 H       
  45 H45            1.4209    -2.6522    -1.5826 H       
  46 H46            1.3653    -4.1217    -5.8207 H       
  47 H47            2.1531    -4.9544    -8.1827 H       
  48 H48            4.8202    -4.9978    -8.1913 H       
  49 H49            7.4212     6.9857    -2.1633 H       
  50 H50            8.0542     8.0372    -0.0302 H       
  51 H51            7.4575     6.9627     2.1020 H       
  52 H52            5.1403     5.0112     2.8055 H       
  53 H53            6.0761     3.5696     2.3427 H       
  54 H54            6.8651     4.8959     3.2296 H       
@<TRIPOS>BOND
   1    1    2 ar
   2    1    6 ar
   3    1   35 1
   4    2    3 ar
   5    2   36 1
   6    3    4 ar
   7    3   37 1
   8    4    5 ar
   9    4    7 1
  10    5    6 ar
  11    5   10 1
  12    6   38 1
  13    7    8 1
  14    7   16 1
  15    8    9 2
  16    8   39 1
  17    9   10 1
  18    9   11 1
  19   10   13 2
  20   11   12 am
  21   11   15 2
  22   12   13 1
  23   12   14 1
  24   14   28 ar
  25   14   32 ar
  26   16   17 1
  27   16   40 1
  28   16   41 1
  29   17   18 ar
  30   17   22 ar
  31   18   19 ar
  32   18   42 1
  33   19   20 ar
  34   19   43 1
  35   20   21 ar
  36   20   23 1
  37   21   22 ar
  38   21   44 1
  39   22   45 1
  40   23   24 1
  41   23   27 1
  42   24   25 2
  43   24   46 1
  44   25   26 1
  45   25   47 1
  46   26   27 2
  47   26   48 1
  48   28   29 ar
  49   28   33 1
  50   29   30 ar
  51   29   49 1
  52   30   31 ar
  53   30   50 1
  54   31   32 ar
  55   31   51 1
  56   32   34 1
  57   34   52 1
  58   34   53 1
  59   34   54 1

#	End of record

