#	Name: ASD01914923
#	Creating user name:	WinNT
#	Creation time:	15. 06. 2019 20:04

#	Modifying user name:	WinNT
#	Modification time:	15. 06. 2019 20:04

#	Program:	/corina/corina34_cracker 3.40 0067  02.08.2006

@<TRIPOS>MOLECULE
ASD01914923
  57   61    0    0    0
SMALL
NO_CHARGES


@<TRIPOS>ATOM
   1 C1             0.0104     1.9045     0.7644 C.2     
   2 N2            -0.0719     0.6115     0.9985 N.2     
   3 C3             1.2823     2.1768     0.2331 C.2     
   4 C4             1.9629     0.9971     0.1564 C.2     
   5 N5             1.1400     0.0163     0.6261 N.pl3   
   6 C6            -1.0596     2.9028     1.0131 C.ar    
   7 C7            -2.2839     2.4985     1.5410 C.ar    
   8 C8            -3.2754     3.4309     1.7703 C.ar    
   9 C9            -3.0554     4.7645     1.4765 C.ar    
  10 C10           -1.8418     5.1714     0.9523 C.ar    
  11 C11           -0.8412     4.2482     0.7249 C.ar    
  12 C12            3.3432     0.8148    -0.3453 C.ar    
  13 C13            4.0942    -0.2900     0.0565 C.ar    
  14 C14            5.3805    -0.4544    -0.4148 C.ar    
  15 C15            5.9258     0.4736    -1.2839 C.ar    
  16 C16            5.1863     1.5716    -1.6857 C.ar    
  17 C17            3.8966     1.7439    -1.2263 C.ar    
  18 C18            1.4663    -1.4085     0.7244 C.3     
  19 C19            1.9869    -1.7105     2.1060 C.2     
  20 N20            2.3529    -2.9669     2.4285 N.am    
  21 O21            2.0766    -0.8229     2.9277 O.2     
  22 C22            2.2566    -4.0654     1.4557 C.3     
  23 C23            1.6996    -5.2802     2.1465 C.2     
  24 N24            1.5958    -5.3788     3.4726 N.am    
  25 C25            1.9162    -4.3100     4.4087 C.3     
  26 C26            2.8713    -3.2941     3.7675 C.3     
  27 C27            1.1473    -6.5940     4.0015 C.ar    
  28 C28           -0.0982    -6.6697     4.6120 C.ar    
  29 C29            1.9437    -7.7274     3.9120 C.ar    
  30 C30            1.4971    -8.9274     4.4361 C.ar    
  31 C31            0.2570    -8.9972     5.0486 C.ar    
  32 C32           -0.5392    -7.8700     5.1335 C.ar    
  33 F33            2.2708   -10.0316     4.3499 F       
  34 O34            1.3273    -6.2128     1.4662 O.2     
  35 H35            1.6545     3.1467    -0.0621 H       
  36 H36           -2.4569     1.4574     1.7700 H       
  37 H37           -4.2248     3.1186     2.1795 H       
  38 H38           -3.8342     5.4907     1.6568 H       
  39 H39           -1.6753     6.2139     0.7247 H       
  40 H40            0.1061     4.5670     0.3158 H       
  41 H41            3.6697    -1.0150     0.7352 H       
  42 H42            5.9631    -1.3091    -0.1042 H       
  43 H43            6.9331     0.3406    -1.6500 H       
  44 H44            5.6177     2.2930    -2.3638 H       
  45 H45            3.3201     2.6013    -1.5409 H       
  46 H46            0.5704    -2.0002     0.5364 H       
  47 H47            2.2284    -1.6584    -0.0137 H       
  48 H48            1.5950    -3.7738     0.6401 H       
  49 H49            3.2472    -4.2917     1.0614 H       
  50 H50            0.9969    -3.8043     4.7042 H       
  51 H51            2.3899    -4.7372     5.2926 H       
  52 H52            3.8681    -3.7273     3.6857 H       
  53 H53            2.9109    -2.3912     4.3768 H       
  54 H54           -0.7212    -5.7901     4.6791 H       
  55 H55            2.9104    -7.6726     3.4336 H       
  56 H56           -0.0906    -9.9347     5.4569 H       
  57 H57           -1.5057    -7.9273     5.6120 H       
@<TRIPOS>BOND
   1    1    2 2
   2    1    3 1
   3    1    6 1
   4    2    5 1
   5    3    4 2
   6    3   35 1
   7    4    5 1
   8    4   12 1
   9    5   18 1
  10    6    7 ar
  11    6   11 ar
  12    7    8 ar
  13    7   36 1
  14    8    9 ar
  15    8   37 1
  16    9   10 ar
  17    9   38 1
  18   10   11 ar
  19   10   39 1
  20   11   40 1
  21   12   13 ar
  22   12   17 ar
  23   13   14 ar
  24   13   41 1
  25   14   15 ar
  26   14   42 1
  27   15   16 ar
  28   15   43 1
  29   16   17 ar
  30   16   44 1
  31   17   45 1
  32   18   19 1
  33   18   46 1
  34   18   47 1
  35   19   20 am
  36   19   21 2
  37   20   22 1
  38   20   26 1
  39   22   23 1
  40   22   48 1
  41   22   49 1
  42   23   24 am
  43   23   34 2
  44   24   25 1
  45   24   27 1
  46   25   26 1
  47   25   50 1
  48   25   51 1
  49   26   52 1
  50   26   53 1
  51   27   28 ar
  52   27   29 ar
  53   28   32 ar
  54   28   54 1
  55   29   30 ar
  56   29   55 1
  57   30   31 ar
  58   30   33 1
  59   31   32 ar
  60   31   56 1
  61   32   57 1

#	End of record

