#	Name: ASD02039484
#	Creating user name:	WinNT
#	Creation time:	15. 06. 2019 20:18

#	Modifying user name:	WinNT
#	Modification time:	15. 06. 2019 20:18

#	Program:	/corina/corina34_cracker 3.40 0067  02.08.2006

@<TRIPOS>MOLECULE
ASD02039484
  51   53    0    0    0
SMALL
NO_CHARGES


@<TRIPOS>ATOM
   1 C1            -0.0158     0.8217     0.1273 C.ar    
   2 C2             0.0758    -0.5520     0.2606 C.ar    
   3 C3             1.2345     1.6630     0.1399 C.3     
   4 N4             1.8105     1.7017    -1.2066 N.am    
   5 C5             1.5368     2.7352    -2.0272 C.2     
   6 C6             0.5701     3.7674    -1.6145 C.2     
   7 C7             0.1237     4.8057    -2.3785 C.2     
   8 N8            -0.0434     3.8553    -0.4066 N.2     
   9 C9            -0.8282     4.8938    -0.4076 C.2     
  10 N10           -0.7486     5.5072    -1.6171 N.pl3   
  11 O11            2.0880     2.8157    -3.1084 O.2     
  12 C12           -1.4756     6.7122    -2.0241 C.3     
  13 C13            2.6841     0.6170    -1.6610 C.3     
  14 C14            2.1149     0.0071    -2.9436 C.3     
  15 C15            4.0834     1.1707    -1.9369 C.3     
  16 C16           -1.0667    -1.3313     0.2502 C.ar    
  17 C17           -2.3079    -0.7400     0.1056 C.ar    
  18 C18           -2.4051     0.6461    -0.0292 C.ar    
  19 C19           -1.2488     1.4236    -0.0229 C.ar    
  20 F20           -3.4237    -1.5016     0.0945 F       
  21 C21           -3.7329     1.2877    -0.1847 C.ar    
  22 N22           -4.7181     0.9672     0.6438 N.ar    
  23 C23           -5.9127     1.5127     0.5415 C.ar    
  24 C24           -6.1840     2.4499    -0.4453 C.ar    
  25 C25           -5.1759     2.8131    -1.3347 C.ar    
  26 C26           -3.9317     2.2258    -1.1963 C.ar    
  27 O27           -7.4199     3.0067    -0.5429 O.3     
  28 C28           -8.3998     2.5816     0.4063 C.3     
  29 F29           -7.9554     2.8772     1.6995 F       
  30 F30           -9.6049     3.2493     0.1634 F       
  31 F31           -8.5984     1.2020     0.2854 F       
  32 H32            1.0435    -1.0180     0.3731 H       
  33 H33            0.9878     2.6756     0.4588 H       
  34 H34            1.9568     1.2299     0.8318 H       
  35 H35            0.4113     5.0261    -3.3959 H       
  36 H36           -1.4454     5.2143     0.4187 H       
  37 H37           -0.8839     7.5940    -1.7783 H       
  38 H38           -1.6546     6.6829    -3.0989 H       
  39 H39           -2.4292     6.7563    -1.4981 H       
  40 H40            2.7426    -0.1501    -0.8889 H       
  41 H41            1.9827     0.7899    -3.6905 H       
  42 H42            2.8044    -0.7461    -3.3249 H       
  43 H43            1.1522    -0.4568    -2.7292 H       
  44 H44            4.5229     1.5281    -1.0056 H       
  45 H45            4.7099     0.3830    -2.3555 H       
  46 H46            4.0145     1.9955    -2.6461 H       
  47 H47           -0.9890    -2.4034     0.3547 H       
  48 H48           -1.3179     2.4964    -0.1265 H       
  49 H49           -6.6906     1.2268     1.2340 H       
  50 H50           -5.3603     3.5400    -2.1119 H       
  51 H51           -3.1268     2.4844    -1.8684 H       
@<TRIPOS>BOND
   1    1    2 ar
   2    1    3 1
   3    1   19 ar
   4    2   16 ar
   5    2   32 1
   6    3    4 1
   7    3   33 1
   8    3   34 1
   9    4    5 am
  10    4   13 1
  11    5    6 1
  12    5   11 2
  13    6    7 2
  14    6    8 1
  15    7   10 1
  16    7   35 1
  17    8    9 2
  18    9   10 1
  19    9   36 1
  20   10   12 1
  21   12   37 1
  22   12   38 1
  23   12   39 1
  24   13   14 1
  25   13   15 1
  26   13   40 1
  27   14   41 1
  28   14   42 1
  29   14   43 1
  30   15   44 1
  31   15   45 1
  32   15   46 1
  33   16   17 ar
  34   16   47 1
  35   17   18 ar
  36   17   20 1
  37   18   19 ar
  38   18   21 1
  39   19   48 1
  40   21   22 ar
  41   21   26 ar
  42   22   23 ar
  43   23   24 ar
  44   23   49 1
  45   24   25 ar
  46   24   27 1
  47   25   26 ar
  48   25   50 1
  49   26   51 1
  50   27   28 1
  51   28   29 1
  52   28   30 1
  53   28   31 1

#	End of record

