#	Name: ASD04220003
#	Creating user name:	WinNT
#	Creation time:	15. 06. 2019 20:48

#	Modifying user name:	WinNT
#	Modification time:	15. 06. 2019 20:48

#	Program:	/corina/corina34_cracker 3.40 0067  02.08.2006

@<TRIPOS>MOLECULE
ASD04220003
  58   60    0    0    0
SMALL
NO_CHARGES


@<TRIPOS>ATOM
   1 C1            -2.1399     1.8502    -0.4219 C.ar    
   2 C2            -1.4285     1.3776     0.6768 C.ar    
   3 C3            -2.1128     0.9484     1.7994 C.ar    
   4 C4            -3.5001     0.9861     1.8373 C.ar    
   5 C5            -4.2060     1.4433     0.7465 C.ar    
   6 C6            -3.5212     1.8853    -0.3793 C.ar    
   7 C7            -4.1801     0.5290     3.1038 C.3     
   8 N8            -5.6203     0.3839     2.8672 N.am    
   9 C9            -6.2944     1.4568     2.1176 C.3     
  10 C10           -5.7112     1.4816     0.7057 C.3     
  11 C11           -6.2996    -0.6893     3.3178 C.2     
  12 O12           -7.5090    -0.7359     3.2018 O.2     
  13 C13           -5.5754    -1.8082     3.9522 C.ar    
  14 C14           -5.3294    -1.7928     5.3276 C.ar    
  15 C15           -4.6512    -2.8422     5.9166 C.ar    
  16 C16           -4.2139    -3.9134     5.1390 C.ar    
  17 C17           -4.4580    -3.9282     3.7724 C.ar    
  18 C18           -5.1394    -2.8875     3.1798 C.ar    
  19 H19           -4.1170    -4.7595     3.1732 H       
  20 O20           -1.4792     2.2806    -1.5300 O.3     
  21 O21           -1.2306     1.2280    -2.5240 O.3     
  22 O22           -0.5170     1.6930    -3.7209 O.3     
  23 S23           -0.2594     0.6024    -4.7508 S.3     
  24 O24            0.4754     1.3440    -5.8583 O.3     
  25 O25           -0.0695     1.3376     0.6467 O.3     
  26 O26            0.5753     2.5630     1.1371 O.3     
  27 O27            2.0433     2.5198     1.1046 O.3     
  28 S28            2.7115     3.7894     1.6127 S.3     
  29 O29            4.1941     3.4764     1.4706 O.3     
  30 C30           -7.7745     1.1813     2.0531 C.2     
  31 O31           -8.2357     0.5740     1.1159 O.2     
  32 O32           -8.5806     1.6106     3.0368 O.3     
  33 C33          -10.7483     1.8738     4.1149 C.3     
  34 C34           -9.9952     1.3094     2.9086 C.3     
  35 O35           -4.4097    -2.8302     7.2550 O.3     
  36 O36           -5.4680    -3.4564     8.0587 O.3     
  37 O37           -5.2072    -3.4434     9.5043 O.3     
  38 S38           -6.3036    -4.0921    10.3370 S.3     
  39 O39           -5.7864    -3.9423    11.7606 O.3     
  40 O40           -3.5472    -4.9443     5.7194 O.3     
  41 O41           -4.4183    -6.0296     6.1901 O.3     
  42 O42           -3.6971    -7.1448     6.8179 O.3     
  43 S43           -4.5996    -8.2692     7.3056 S.3     
  44 O44           -3.6142    -9.2668     7.8975 O.3     
  45 H45           -1.5634     0.5806     2.6535 H       
  46 H46           -4.0736     2.2522    -1.2317 H       
  47 H47           -3.7648    -0.4304     3.4123 H       
  48 H48           -4.0141     1.2650     3.8905 H       
  49 H49           -6.1179     2.4150     2.6063 H       
  50 H50           -6.0331     2.3924     0.2009 H       
  51 H51           -6.0770     0.6171     0.1516 H       
  52 H52           -5.6685    -0.9621     5.9288 H       
  53 H53           -5.3279    -2.9015     2.1164 H       
  54 H54          -10.3619     1.4217     5.0284 H       
  55 H55          -10.6092     2.9541     4.1571 H       
  56 H56          -11.8102     1.6477     4.0187 H       
  57 H57          -10.3816     1.7614     1.9951 H       
  58 H58          -10.1343     0.2291     2.8664 H       
@<TRIPOS>BOND
   1    1    2 ar
   2    1   20 1
   3    1    6 ar
   4    2    3 ar
   5    2   25 1
   6    3    4 ar
   7    3   45 1
   8    4    5 ar
   9    4    7 1
  10    5    6 ar
  11    5   10 1
  12    6   46 1
  13    7    8 1
  14    7   47 1
  15    7   48 1
  16    8    9 1
  17    8   11 am
  18    9   10 1
  19    9   30 1
  20    9   49 1
  21   10   50 1
  22   10   51 1
  23   11   12 2
  24   11   13 1
  25   13   14 ar
  26   13   18 ar
  27   14   15 ar
  28   14   52 1
  29   15   16 ar
  30   15   35 1
  31   16   17 ar
  32   16   40 1
  33   17   18 ar
  34   17   19 1
  35   18   53 1
  36   20   21 1
  37   21   22 1
  38   22   23 1
  39   23   24 1
  40   25   26 1
  41   26   27 1
  42   27   28 1
  43   28   29 1
  44   30   31 2
  45   30   32 1
  46   32   34 1
  47   33   34 1
  48   33   54 1
  49   33   55 1
  50   33   56 1
  51   34   57 1
  52   34   58 1
  53   35   36 1
  54   36   37 1
  55   37   38 1
  56   38   39 1
  57   40   41 1
  58   41   42 1
  59   42   43 1
  60   43   44 1

#	End of record

