#	Name: ASD05560002
#	Creating user name:	WinNT
#	Creation time:	15. 06. 2019 21:01

#	Modifying user name:	WinNT
#	Modification time:	15. 06. 2019 21:01

#	Program:	/corina/corina34_cracker 3.40 0067  02.08.2006

@<TRIPOS>MOLECULE
ASD05560002
  55   57    0    0    0
SMALL
NO_CHARGES


@<TRIPOS>ATOM
   1 C1            -0.0143     1.2034     0.0087 C.2     
   2 O2             0.0021    -0.0041     0.0020 O.2     
   3 C3             1.2804     1.9746     0.0004 C.3     
   4 H4            -0.9568     1.7306     0.0160 H       
   5 H5             1.0667     3.0434     0.0082 H       
   6 H6             1.8640     1.7143     0.8835 H       
   7 H7             1.8470     1.7239    -0.8964 H       
   8 C8             9.0678    11.8777    10.5973 C.ar    
   9 C9             9.0203    10.5054    10.8109 C.ar    
  10 C10            9.0415    10.0369    12.1224 C.ar    
  11 N11            9.1062    10.9132    13.1217 N.ar    
  12 C12            9.1501    12.2150    12.8796 C.ar    
  13 N13            9.1316    12.6945    11.6442 N.ar    
  14 S14            9.2352    13.3378    14.2349 S.3     
  15 C15            9.2309    12.1661    15.6145 C.3     
  16 O16            9.0549    12.3769     9.3372 O.3     
  17 C17            9.0247    13.7265     9.1862 C.ar    
  18 C18           10.1644    15.8358     9.1803 C.ar    
  19 C19           10.1912    14.4663     9.3327 C.ar    
  20 C20            7.8286    14.3628     8.8801 C.ar    
  21 C21            7.7942    15.7319     8.7257 C.ar    
  22 C22            8.9633    16.4792     8.8778 C.ar    
  23 C23            8.9303    17.9486     8.7139 C.2     
  24 N24            9.9595    18.7649     8.8260 N.2     
  25 C25            9.5625    20.0210     8.6135 C.2     
  26 N26            8.2739    20.0263     8.3625 N.2     
  27 N27            7.8404    18.6917     8.4167 N.pl3   
  28 N28           10.3851    21.1486     8.6524 N.pl3   
  29 C29            9.8288    22.4241     8.5249 C.ar    
  30 C30            8.7276    24.9500     8.2734 C.ar    
  31 C31            7.9928    23.9316     8.8531 C.ar    
  32 C32            8.5393    22.6699     8.9801 C.ar    
  33 C33           10.5658    23.4505     7.9481 C.ar    
  34 C34           10.0130    24.7101     7.8242 C.ar    
  35 C35           10.8096    25.8228     7.1929 C.3     
  36 F36           10.0426    26.9927     7.1737 F       
  37 F37           11.9750    26.0414     7.9354 F       
  38 F38           11.1507    25.4673     5.8835 F       
  39 N39            8.9954     8.6764    12.3831 N.pl3   
  40 H40            8.9677     9.8182     9.9795 H       
  41 H41            9.2809    12.7131    16.5559 H       
  42 H42            8.3157    11.5747    15.5860 H       
  43 H43           10.0935    11.5048    15.5322 H       
  44 H44           11.0717    16.4104     9.2947 H       
  45 H45           11.1202    13.9677     9.5668 H       
  46 H46            6.9245    13.7839     8.7625 H       
  47 H47            6.8640    16.2259     8.4869 H       
  48 H48            6.9378    18.3674     8.2718 H       
  49 H49           11.3428    21.0465     8.7678 H       
  50 H50            8.2976    25.9358     8.1749 H       
  51 H51            6.9892    24.1224     9.2033 H       
  52 H52            7.9649    21.8750     9.4325 H       
  53 H53           11.5701    23.2639     7.5973 H       
  54 H54            8.9480     8.0434    11.6497 H       
  55 H55            9.0106     8.3573    13.2990 H       
@<TRIPOS>BOND
   1    1    2 2
   2    1    3 1
   3    1    4 1
   4    3    5 1
   5    3    6 1
   6    3    7 1
   7    8    9 ar
   8    8   13 ar
   9    8   16 1
  10    9   10 ar
  11    9   40 1
  12   10   11 ar
  13   10   39 1
  14   11   12 ar
  15   12   13 ar
  16   12   14 1
  17   14   15 1
  18   15   41 1
  19   15   42 1
  20   15   43 1
  21   16   17 1
  22   17   20 ar
  23   17   19 ar
  24   18   19 ar
  25   18   22 ar
  26   18   44 1
  27   19   45 1
  28   20   21 ar
  29   20   46 1
  30   21   22 ar
  31   21   47 1
  32   22   23 1
  33   23   24 2
  34   23   27 1
  35   24   25 1
  36   25   26 2
  37   25   28 1
  38   26   27 1
  39   27   48 1
  40   28   29 1
  41   28   49 1
  42   29   33 ar
  43   29   32 ar
  44   30   31 ar
  45   30   34 ar
  46   30   50 1
  47   31   32 ar
  48   31   51 1
  49   32   52 1
  50   33   34 ar
  51   33   53 1
  52   34   35 1
  53   35   36 1
  54   35   37 1
  55   35   38 1
  56   39   54 1
  57   39   55 1

#	End of record

