#	Name: ASD03730256
#	Creating user name:	WinNT
#	Creation time:	15. 06. 2019 20:44

#	Modifying user name:	WinNT
#	Modification time:	15. 06. 2019 20:44

#	Program:	/corina/corina34_cracker 3.40 0067  02.08.2006

@<TRIPOS>MOLECULE
ASD03730256
  62   68    0    0    0
SMALL
NO_CHARGES


@<TRIPOS>ATOM
   1 O1            -0.4735     1.1450     1.3359 O.3     
   2 C2            -0.4062    -0.2912     1.4109 C.3     
   3 O3             0.6710    -0.6307     0.5180 O.3     
   4 C4             1.4928     0.4600     0.5060 C.ar    
   5 C5             0.7876     1.5522     1.0061 C.ar    
   6 C6             2.8082     0.6107     0.1049 C.ar    
   7 C7             3.4340     1.8506     0.1923 C.ar    
   8 C8             2.7153     2.9376     0.6806 C.ar    
   9 C9             1.4064     2.7884     1.0891 C.ar    
  10 O10            4.7117     2.2061    -0.1261 O.3     
  11 C11            3.6390     4.1246     0.6206 C.3     
  12 C12            4.7815     3.6367    -0.2809 C.3     
  13 N13            3.0723     6.3071     0.9914 N.am    
  14 C14            2.9644     5.3420     0.0566 C.2     
  15 C15            4.1317     4.5356     1.9759 C.ar    
  16 C16            4.8251     3.8800     2.9842 C.ar    
  17 C17            5.1440     4.5582     4.1605 C.ar    
  18 C18            4.7669     5.8777     4.3130 C.ar    
  19 C19            4.0779     6.5291     3.3102 C.ar    
  20 C20            3.7525     5.8645     2.1289 C.ar    
  21 O21            2.4279     5.4379    -1.0270 O.2     
  22 N22            6.3079    -1.4907     2.3716 N.ar    
  23 C23            7.1505    -1.8607     1.4381 C.ar    
  24 C24            7.7175    -0.9432     0.5561 C.ar    
  25 C25            7.3976     0.3810     0.6521 C.ar    
  26 C26            6.4915     0.7749     1.6561 C.ar    
  27 C27            6.1179     2.1172     1.8128 C.ar    
  28 C28            5.2254     2.4619     2.8111 C.ar    
  29 C29            4.6957     1.4792     3.6623 C.ar    
  30 C30            5.0464     0.1742     3.5257 C.ar    
  31 C31            5.9520    -0.2107     2.5206 C.ar    
  32 C32            2.5385     7.6622     0.8332 C.3     
  33 C33            1.1032     7.7098     1.3610 C.3     
  34 C34            0.5458     9.1250     1.1958 C.3     
  35 C35           -0.8895     9.1727     1.7236 C.3     
  36 C36           -1.4470    10.5879     1.5584 C.3     
  37 H37           -0.1765    -0.6113     2.4272 H       
  38 H38           -1.3408    -0.7367     1.0701 H       
  39 H39            3.3530    -0.2395    -0.2783 H       
  40 H40            0.8625     3.6380     1.4748 H       
  41 H41            5.7407     4.0177     0.0695 H       
  42 H42            4.6055     3.9229    -1.3178 H       
  43 H43            5.6831     4.0535     4.9486 H       
  44 H44            5.0127     6.4037     5.2236 H       
  45 H45            3.7882     7.5611     3.4419 H       
  46 H46            7.4126    -2.9048     1.3506 H       
  47 H47            8.4094    -1.2787    -0.2023 H       
  48 H48            7.8278     1.1062    -0.0228 H       
  49 H49            6.5241     2.8755     1.1597 H       
  50 H50            3.9997     1.7651     4.4370 H       
  51 H51            4.6298    -0.5686     4.1898 H       
  52 H52            3.1556     8.3636     1.3948 H       
  53 H53            2.5469     7.9351    -0.2220 H       
  54 H54            0.4862     7.0084     0.7995 H       
  55 H55            1.0949     7.4369     2.4163 H       
  56 H56            1.1629     9.8264     1.7574 H       
  57 H57            0.5541     9.3980     0.1406 H       
  58 H58           -1.5066     8.4713     1.1621 H       
  59 H59           -0.8978     8.8998     2.7789 H       
  60 H60           -1.4386    10.8608     0.5032 H       
  61 H61           -2.4695    10.6218     1.9344 H       
  62 H62           -0.8299    11.2893     2.1200 H       
@<TRIPOS>BOND
   1    1    2 1
   2    1    5 1
   3    2    3 1
   4    2   37 1
   5    2   38 1
   6    3    4 1
   7    4    5 ar
   8    4    6 ar
   9    5    9 ar
  10    6    7 ar
  11    6   39 1
  12    7    8 ar
  13    7   10 1
  14    8    9 ar
  15    8   11 1
  16    9   40 1
  17   10   12 1
  18   11   12 1
  19   11   14 1
  20   11   15 1
  21   12   41 1
  22   12   42 1
  23   13   14 am
  24   13   20 1
  25   13   32 1
  26   14   21 2
  27   15   16 ar
  28   15   20 ar
  29   16   17 ar
  30   16   28 1
  31   17   18 ar
  32   17   43 1
  33   18   19 ar
  34   18   44 1
  35   19   20 ar
  36   19   45 1
  37   22   23 ar
  38   22   31 ar
  39   23   24 ar
  40   23   46 1
  41   24   25 ar
  42   24   47 1
  43   25   26 ar
  44   25   48 1
  45   26   27 ar
  46   26   31 ar
  47   27   28 ar
  48   27   49 1
  49   28   29 ar
  50   29   30 ar
  51   29   50 1
  52   30   31 ar
  53   30   51 1
  54   32   33 1
  55   32   52 1
  56   32   53 1
  57   33   34 1
  58   33   54 1
  59   33   55 1
  60   34   35 1
  61   34   56 1
  62   34   57 1
  63   35   36 1
  64   35   58 1
  65   35   59 1
  66   36   60 1
  67   36   61 1
  68   36   62 1

#	End of record

