#	Name: ASD01811839
#	Creating user name:	WinNT
#	Creation time:	15. 06. 2019 19:27

#	Modifying user name:	WinNT
#	Modification time:	15. 06. 2019 19:27

#	Program:	/corina/corina34_cracker 3.40 0067  02.08.2006

@<TRIPOS>MOLECULE
ASD01811839
  54   57    0    0    0
SMALL
NO_CHARGES


@<TRIPOS>ATOM
   1 C1            -0.0167     1.3805     0.0096 C.ar    
   2 C2             0.0021    -0.0041     0.0020 C.ar    
   3 C3             1.2075    -0.6836    -0.0127 C.ar    
   4 C4             2.3988     0.0118    -0.0203 C.ar    
   5 C5             2.3881     1.4079    -0.0132 C.ar    
   6 C6             1.1658     2.0836     0.0021 C.ar    
   7 C7            -1.2939    -0.7731     0.0103 C.3     
   8 C8             1.2188    -2.1905    -0.0199 C.3     
   9 C9             1.0853    -2.6871    -1.4364 C.ar    
  10 C10            2.2165    -2.9050    -2.2009 C.ar    
  11 C11            2.0968    -3.3602    -3.4997 C.ar    
  12 C12            0.8401    -3.5987    -4.0368 C.ar    
  13 C13           -0.2935    -3.3792    -3.2677 C.ar    
  14 C14           -0.1681    -2.9294    -1.9675 C.ar    
  15 O15            0.7196    -4.0461    -5.3144 O.3     
  16 C16           -0.6052    -4.2699    -5.8012 C.3     
  17 C17            3.4708     2.4102    -0.0183 C.2     
  18 N18            2.9565     3.6521    -0.0072 N.am    
  19 C19            1.4923     3.5561     0.0064 C.3     
  20 O20            4.6581     2.1501    -0.0300 O.2     
  21 C21            3.7301     4.8962    -0.0086 C.3     
  22 C22            4.5993     4.9548    -1.2663 C.3     
  23 C23            5.4073     6.2541    -1.2678 C.3     
  24 C24            6.3016     6.2999    -0.0272 C.3     
  25 C25            5.4324     6.2412     1.2305 C.3     
  26 C26            4.6244     4.9420     1.2320 C.3     
  27 O27            3.7640     4.9120    -2.4250 O.3     
  28 H28           -0.9590     1.9081     0.0170 H       
  29 H29            3.3374    -0.5224    -0.0314 H       
  30 H30           -1.6162    -0.9530    -1.0154 H       
  31 H31           -1.1473    -1.7267     0.5176 H       
  32 H32           -2.0556    -0.1960     0.5345 H       
  33 H33            2.1570    -2.5488     0.4038 H       
  34 H34            0.3854    -2.5629     0.5758 H       
  35 H35            3.1946    -2.7189    -1.7825 H       
  36 H36            2.9807    -3.5299    -4.0966 H       
  37 H37           -1.2729    -3.5641    -3.6835 H       
  38 H38           -1.0503    -2.7584    -1.3684 H       
  39 H39           -1.1687    -3.3377    -5.7630 H       
  40 H40           -0.5588    -4.6245    -6.8308 H       
  41 H41           -1.0985    -5.0184    -5.1810 H       
  42 H42            1.0774     4.0343    -0.8809 H       
  43 H43            1.0945     4.0255     0.9061 H       
  44 H44            3.0494     5.7474     0.0026 H       
  45 H45            5.2801     4.1036    -1.2776 H       
  46 H46            6.0265     6.2958    -2.1639 H       
  47 H47            4.7265     7.1053    -1.2566 H       
  48 H48            6.9823     5.4487    -0.0385 H       
  49 H49            6.8772     7.2255    -0.0283 H       
  50 H50            6.0695     6.2739     2.1143 H       
  51 H51            4.7516     7.0924     1.2417 H       
  52 H52            4.0052     4.9002     2.1280 H       
  53 H53            5.3052     4.0908     1.2208 H       
  54 H54            4.2490     4.9455    -3.2609 H       
@<TRIPOS>BOND
   1    1    2 ar
   2    1    6 ar
   3    1   28 1
   4    2    3 ar
   5    2    7 1
   6    3    4 ar
   7    3    8 1
   8    4    5 ar
   9    4   29 1
  10    5    6 ar
  11    5   17 1
  12    6   19 1
  13    7   30 1
  14    7   31 1
  15    7   32 1
  16    8    9 1
  17    8   33 1
  18    8   34 1
  19    9   10 ar
  20    9   14 ar
  21   10   11 ar
  22   10   35 1
  23   11   12 ar
  24   11   36 1
  25   12   13 ar
  26   12   15 1
  27   13   14 ar
  28   13   37 1
  29   14   38 1
  30   15   16 1
  31   16   39 1
  32   16   40 1
  33   16   41 1
  34   17   18 am
  35   17   20 2
  36   18   19 1
  37   18   21 1
  38   19   42 1
  39   19   43 1
  40   21   22 1
  41   21   26 1
  42   21   44 1
  43   22   23 1
  44   22   27 1
  45   22   45 1
  46   23   24 1
  47   23   46 1
  48   23   47 1
  49   24   25 1
  50   24   48 1
  51   24   49 1
  52   25   26 1
  53   25   50 1
  54   25   51 1
  55   26   52 1
  56   26   53 1
  57   27   54 1

#	End of record

