#	Name: ASD01380017
#	Creating user name:	WinNT
#	Creation time:	15. 06. 2019 19:16

#	Modifying user name:	WinNT
#	Modification time:	15. 06. 2019 19:16

#	Program:	/corina/corina34_cracker 3.40 0067  02.08.2006

@<TRIPOS>MOLECULE
ASD01380017
  69   72    0    0    0
SMALL
NO_CHARGES


@<TRIPOS>ATOM
   1 C1             1.0944     1.5917    -1.1752 C.3     
   2 C2             0.9653     0.0758    -1.0126 C.3     
   3 C3             1.6466    -0.3575     0.2870 C.3     
   4 N4             1.5231    -1.8090     0.4426 N.pl3   
   5 C5             2.0684    -2.4370     1.5548 C.ar    
   6 C6             2.8446    -1.7158     2.4532 C.ar    
   7 C7             3.3855    -2.3417     3.5576 C.ar    
   8 C8             3.1603    -3.6916     3.7804 C.ar    
   9 C9             2.3924    -4.4238     2.9005 C.ar    
  10 C10            1.8332    -3.8030     1.7801 C.ar    
  11 C11            1.0116    -4.5791     0.8355 C.2     
  12 O12            0.4376    -4.0159    -0.0755 O.2     
  13 O13            0.8964    -5.9139     0.9817 O.3     
  14 C14            0.0706    -6.6142     0.0143 C.3     
  15 C15           -0.5707    -7.8606     0.6544 C.3     
  16 C16           -2.0955    -7.7498     0.5950 C.3     
  17 O17           -2.6807    -8.8511     1.2926 O.3     
  18 P18           -4.2716    -9.0552     1.4320 P.3     
  19 O19           -4.8885    -9.0573     0.0867 O.2     
  20 O20           -4.5707   -10.4589     2.1617 O.3     
  21 P21           -5.8552   -11.4262     2.2421 P.3     
  22 O22           -6.4403   -11.5825     0.8917 O.2     
  23 O23           -5.4074   -12.8673     2.8031 O.3     
  24 P24           -6.0551   -14.3402     2.7461 P.3     
  25 O25           -7.5190   -14.2432     2.9406 O.2     
  26 O26           -5.7471   -15.0069     1.3134 O.3     
  27 O27           -5.4183   -15.2519     3.9103 O.3     
  28 O28           -6.9509   -10.7823     3.2305 O.3     
  29 O29           -4.8924    -7.8534     2.3052 O.3     
  30 O30           -0.1338    -9.0022    -0.1020 O.3     
  31 C31            1.1377    -8.6555    -0.6918 C.3     
  32 C32            0.9425    -7.1823    -1.1319 C.3     
  33 O33            0.2524    -7.1105    -2.3812 O.3     
  34 N34            2.2116    -8.7599     0.2992 N.pl3   
  35 C35            2.0642    -8.7285     1.6538 C.2     
  36 N36            3.2272    -8.8477     2.2266 N.2     
  37 C37            4.1843    -8.9621     1.2767 C.2     
  38 C38            3.5448    -8.9126     0.0342 C.2     
  39 N39            4.2716    -9.0056    -1.0883 N.2     
  40 C40            5.5673    -9.1417    -1.0455 C.2     
  41 N41            6.2497    -9.1972     0.1260 N.am    
  42 C42            5.5930    -9.1145     1.3046 C.2     
  43 O43            6.1967    -9.1628     2.3625 O.2     
  44 Br44           3.9108    -4.5325     5.2988 Br      
  45 H45            2.1490     1.8650    -1.2092 H       
  46 H46            0.6090     1.9004    -2.1011 H       
  47 H47            0.6171     2.0896    -0.3312 H       
  48 H48           -0.0893    -0.1975    -0.9786 H       
  49 H49            1.4427    -0.4221    -1.8566 H       
  50 H50            2.7013    -0.0843     0.2530 H       
  51 H51            1.1693     0.1403     1.1310 H       
  52 H52            1.0603    -2.3314    -0.2311 H       
  53 H53            3.0252    -0.6641     2.2868 H       
  54 H54            3.9886    -1.7765     4.2528 H       
  55 H55            2.2200    -5.4750     3.0786 H       
  56 H56           -0.6980    -5.9503    -0.3814 H       
  57 H57           -0.2461    -7.9536     1.6908 H       
  58 H58           -2.4104    -6.8160     1.0608 H       
  59 H59           -2.4206    -7.7645    -0.4453 H       
  60 H60           -4.8048   -15.1018     1.1182 H       
  61 H61           -5.7632   -16.1550     3.9357 H       
  62 H62           -6.6355   -10.6510     4.1352 H       
  63 H63           -4.5331    -7.7917     3.2008 H       
  64 H64            1.3465    -9.2892    -1.5537 H       
  65 H65            1.8991    -6.6628    -1.1871 H       
  66 H66            0.7199    -7.5346    -3.1137 H       
  67 H67            1.1239    -8.6203     2.1739 H       
  68 H68            6.1158    -9.2131    -1.9731 H       
  69 H69            7.2143    -9.2997     0.1177 H       
@<TRIPOS>BOND
   1    1    2 1
   2    1   45 1
   3    1   46 1
   4    1   47 1
   5    2    3 1
   6    2   48 1
   7    2   49 1
   8    3    4 1
   9    3   50 1
  10    3   51 1
  11    4    5 1
  12    4   52 1
  13    5    6 ar
  14    5   10 ar
  15    6    7 ar
  16    6   53 1
  17    7    8 ar
  18    7   54 1
  19    8    9 ar
  20    8   44 1
  21    9   10 ar
  22    9   55 1
  23   10   11 1
  24   11   12 2
  25   11   13 1
  26   13   14 1
  27   14   15 1
  28   14   32 1
  29   14   56 1
  30   15   16 1
  31   15   30 1
  32   15   57 1
  33   16   17 1
  34   16   58 1
  35   16   59 1
  36   17   18 1
  37   18   19 2
  38   18   20 1
  39   18   29 1
  40   20   21 1
  41   21   22 2
  42   21   23 1
  43   21   28 1
  44   23   24 1
  45   24   25 2
  46   24   26 1
  47   24   27 1
  48   26   60 1
  49   27   61 1
  50   28   62 1
  51   29   63 1
  52   30   31 1
  53   31   32 1
  54   31   34 1
  55   31   64 1
  56   32   33 1
  57   32   65 1
  58   33   66 1
  59   34   35 1
  60   34   38 1
  61   35   36 2
  62   35   67 1
  63   36   37 1
  64   37   38 2
  65   37   42 1
  66   38   39 1
  67   39   40 2
  68   40   41 1
  69   40   68 1
  70   41   42 am
  71   41   69 1
  72   42   43 2

#	End of record

