#	Name: ASD01881182
#	Creating user name:	WinNT
#	Creation time:	15. 06. 2019 19:42

#	Modifying user name:	WinNT
#	Modification time:	15. 06. 2019 19:42

#	Program:	/corina/corina34_cracker 3.40 0067  02.08.2006

@<TRIPOS>MOLECULE
ASD01881182
  60   63    0    0    0
SMALL
NO_CHARGES


@<TRIPOS>ATOM
   1 Cl1            7.7253     4.6461     2.1523 Cl      
   2 N2             0.0000     1.3091    -0.2102 N.ar    
   3 C3             0.0278    -0.0078    -0.2351 C.ar    
   4 N4             1.1415    -0.6836    -0.0357 N.ar    
   5 C5             2.2865    -0.0587     0.1996 C.ar    
   6 C6             2.3058     1.3219     0.2351 C.ar    
   7 C7             1.1085     2.0071     0.0197 C.ar    
   8 C8             3.5871     2.0699     0.4995 C.3     
   9 O9             4.3110     2.2218    -0.7232 O.3     
  10 C10            5.4970     2.8784    -0.6595 C.ar    
  11 C11            6.2530     3.0613    -1.8137 C.ar    
  12 C12            7.4521     3.7258    -1.7492 C.ar    
  13 C13            7.9218     4.2223    -0.5284 C.ar    
  14 C14            7.1581     4.0367     0.6289 C.ar    
  15 C15            5.9520     3.3722     0.5565 C.ar    
  16 C16            8.4904     4.0859    -2.7826 C.3     
  17 N17            9.5502     4.8037    -2.0653 N.am    
  18 C18            9.2177     4.8799    -0.7652 C.2     
  19 O19            9.8916     5.4155     0.0935 O.2     
  20 N20            1.0758     3.3919     0.0448 N.3     
  21 C21           -0.1715     3.8785     0.6520 C.3     
  22 C22           -0.1399     5.4079     0.7139 C.3     
  23 O23            0.0606     5.9292    -0.6027 O.3     
  24 C24            1.2666     5.4762    -1.2238 C.3     
  25 C25            1.2492     3.9474    -1.3053 C.3     
  26 C26            4.2537    -1.0793    -0.9130 C.3     
  27 C27            3.5519    -0.8451     0.4263 C.3     
  28 C28           -1.4094    -0.9855    -2.0037 C.3     
  29 C29           -1.2498    -0.7626    -0.4984 C.3     
  30 C30           10.5155     6.7863    -3.1230 C.3     
  31 C31           10.7698     5.3482    -2.6671 C.3     
  32 H32            3.3558     3.0531     0.9093 H       
  33 H33            4.1928     1.5119     1.2135 H       
  34 H34            5.8965     2.6802    -2.7593 H       
  35 H35            5.3623     3.2289     1.4499 H       
  36 H36            8.8931     3.1821    -3.2399 H       
  37 H37            8.0522     4.7292    -3.5456 H       
  38 H38           -1.0201     3.5561     0.0486 H       
  39 H39           -0.2669     3.4753     1.6602 H       
  40 H40           -1.0861     5.7758     1.1108 H       
  41 H41            0.6764     5.7292     1.3608 H       
  42 H42            1.3377     5.8934    -2.2283 H       
  43 H43            2.1238     5.7994    -0.6332 H       
  44 H44            2.1909     3.5946    -1.7258 H       
  45 H45            0.4234     3.6262    -1.9400 H       
  46 H46            4.4990    -0.1193    -1.3674 H       
  47 H47            5.1689    -1.6481    -0.7491 H       
  48 H48            3.5931    -1.6372    -1.5767 H       
  49 H49            4.2125    -0.2872     1.0899 H       
  50 H50            3.3067    -1.8051     0.8806 H       
  51 H51           -2.3334    -1.5314    -2.1942 H       
  52 H52           -1.4453    -0.0219    -2.5119 H       
  53 H53           -0.5632    -1.5620    -2.3774 H       
  54 H54           -1.2139    -1.7262     0.0098 H       
  55 H55           -2.0960    -0.1861    -0.1248 H       
  56 H56            9.7111     6.7975    -3.8585 H       
  57 H57           10.2311     7.3947    -2.2644 H       
  58 H58           11.4229     7.1914    -3.5708 H       
  59 H59           11.5742     5.3370    -1.9316 H       
  60 H60           11.0542     4.7398    -3.5257 H       
@<TRIPOS>BOND
   1    1   14 1
   2    2    3 ar
   3    2    7 ar
   4    3    4 ar
   5    3   29 1
   6    4    5 ar
   7    5    6 ar
   8    5   27 1
   9    6    7 ar
  10    6    8 1
  11    7   20 1
  12    8    9 1
  13    8   32 1
  14    8   33 1
  15    9   10 1
  16   10   11 ar
  17   10   15 ar
  18   11   12 ar
  19   11   34 1
  20   12   13 ar
  21   12   16 1
  22   13   14 ar
  23   13   18 1
  24   14   15 ar
  25   15   35 1
  26   16   17 1
  27   16   36 1
  28   16   37 1
  29   17   18 am
  30   17   31 1
  31   18   19 2
  32   20   21 1
  33   20   25 1
  34   21   22 1
  35   21   38 1
  36   21   39 1
  37   22   23 1
  38   22   40 1
  39   22   41 1
  40   23   24 1
  41   24   25 1
  42   24   42 1
  43   24   43 1
  44   25   44 1
  45   25   45 1
  46   26   27 1
  47   26   46 1
  48   26   47 1
  49   26   48 1
  50   27   49 1
  51   27   50 1
  52   28   29 1
  53   28   51 1
  54   28   52 1
  55   28   53 1
  56   29   54 1
  57   29   55 1
  58   30   31 1
  59   30   56 1
  60   30   57 1
  61   30   58 1
  62   31   59 1
  63   31   60 1

#	End of record

