#	Name: ASD03331533
#	Creating user name:	WinNT
#	Creation time:	15. 06. 2019 20:39

#	Modifying user name:	WinNT
#	Modification time:	15. 06. 2019 20:39

#	Program:	/corina/corina34_cracker 3.40 0067  02.08.2006

@<TRIPOS>MOLECULE
ASD03331533
  67   69    0    0    0
SMALL
NO_CHARGES


@<TRIPOS>ATOM
   1 C1             1.5804     1.6097    -0.5694 C.ar    
   2 C2             1.7476     0.2430    -0.4881 C.ar    
   3 C3             0.6325    -0.5904    -0.3914 C.ar    
   4 C4            -0.6478    -0.0363    -0.3772 C.ar    
   5 C5            -0.8053     1.3336    -0.4591 C.ar    
   6 C6             0.3078     2.1569    -0.5551 C.ar    
   7 C7             0.8074    -2.0567    -0.3045 C.2     
   8 N8             1.9232    -2.7493    -0.6798 N.pl3   
   9 C9             1.6770    -4.0665    -0.4536 C.2     
  10 C10            0.4232    -4.1579     0.0702 C.2     
  11 N11           -0.0814    -2.9074     0.1511 N.2     
  12 C12            3.1636    -2.1818    -1.2157 C.3     
  13 C13            3.8526    -3.2163    -2.1086 C.3     
  14 C14            4.7940    -4.0801    -1.2708 C.3     
  15 C15            4.0128    -4.8429    -0.2055 C.3     
  16 C16            2.6248    -5.1996    -0.7467 C.3     
  17 C17           -0.2592    -5.3983     0.4794 C.2     
  18 O18            0.3038    -6.4697     0.3603 O.2     
  19 N19           -1.5071    -5.3453     0.9857 N.am    
  20 F20            0.1497     3.4962    -0.6354 F       
  21 F21           -2.0441     1.8724    -0.4456 F       
  22 C22           -2.1855    -6.5784     1.3925 C.3     
  23 C23           -3.6774    -6.3747     1.3311 C.2     
  24 C24           -2.0693    -5.7526     3.7477 C.3     
  25 N25           -4.4927    -7.4259     1.1147 N.am    
  26 O26           -4.1444    -5.2649     1.4764 O.2     
  27 C27           -1.7781    -6.9364     2.8232 C.3     
  28 C28           -2.5748    -8.1562     3.2902 C.3     
  29 C29           -0.2829    -7.2582     2.8623 C.3     
  30 C30           -5.9340    -7.2151     0.9590 C.3     
  31 C31           -6.1888    -6.2971    -0.2382 C.3     
  32 C32           -6.6240    -8.5606     0.7258 C.3     
  33 C33           -6.4946    -6.5674     2.2267 C.3     
  34 H34            2.4436     2.2549    -0.6398 H       
  35 H35            2.7405    -0.1818    -0.4998 H       
  36 H36           -1.5140    -0.6771    -0.3028 H       
  37 H37            2.9329    -1.2921    -1.8016 H       
  38 H38            3.8259    -1.9135    -0.3926 H       
  39 H39            3.0992    -3.8502    -2.5763 H       
  40 H40            4.4239    -2.7036    -2.8825 H       
  41 H41            5.3050    -4.7906    -1.9206 H       
  42 H42            5.5339    -3.4422    -0.7874 H       
  43 H43            4.5478    -5.7567     0.0528 H       
  44 H44            3.9072    -4.2203     0.6830 H       
  45 H45            2.2673    -6.1085    -0.2628 H       
  46 H46            2.6828    -5.3570    -1.8237 H       
  47 H47           -1.9561    -4.4907     1.0806 H       
  48 H48           -1.9013    -7.3881     0.7204 H       
  49 H49           -3.1346    -5.5233     3.7198 H       
  50 H50           -1.7791    -6.0076     4.7669 H       
  51 H51           -1.5018    -4.8835     3.4150 H       
  52 H52           -4.1251    -8.3220     1.0620 H       
  53 H53           -2.3183    -9.0163     2.6716 H       
  54 H54           -2.3323    -8.3719     4.3308 H       
  55 H55           -3.6413    -7.9496     3.2010 H       
  56 H56            0.2847    -6.3892     2.5296 H       
  57 H57            0.0074    -7.5132     3.8815 H       
  58 H58           -0.0754    -8.1016     2.2036 H       
  59 H59           -5.7895    -6.7585    -1.1414 H       
  60 H60           -7.2612    -6.1402    -0.3541 H       
  61 H61           -5.6973    -5.3385    -0.0721 H       
  62 H62           -6.4425    -9.2147     1.5787 H       
  63 H63           -7.6964    -8.4038     0.6100 H       
  64 H64           -6.2246    -9.0221    -0.1774 H       
  65 H65           -6.0031    -5.6088     2.3928 H       
  66 H66           -7.5670    -6.4106     2.1109 H       
  67 H67           -6.3131    -7.2214     3.0796 H       
@<TRIPOS>BOND
   1    1    2 ar
   2    1    6 ar
   3    1   34 1
   4    2    3 ar
   5    2   35 1
   6    3    4 ar
   7    3    7 1
   8    4    5 ar
   9    4   36 1
  10    5    6 ar
  11    5   21 1
  12    6   20 1
  13    7    8 1
  14    7   11 2
  15    8    9 1
  16    8   12 1
  17    9   10 2
  18    9   16 1
  19   10   11 1
  20   10   17 1
  21   12   13 1
  22   12   37 1
  23   12   38 1
  24   13   14 1
  25   13   39 1
  26   13   40 1
  27   14   15 1
  28   14   41 1
  29   14   42 1
  30   15   16 1
  31   15   43 1
  32   15   44 1
  33   16   45 1
  34   16   46 1
  35   17   18 2
  36   17   19 am
  37   19   22 1
  38   19   47 1
  39   22   27 1
  40   22   23 1
  41   22   48 1
  42   23   25 am
  43   23   26 2
  44   24   27 1
  45   24   49 1
  46   24   50 1
  47   24   51 1
  48   25   30 1
  49   25   52 1
  50   27   28 1
  51   27   29 1
  52   28   53 1
  53   28   54 1
  54   28   55 1
  55   29   56 1
  56   29   57 1
  57   29   58 1
  58   30   31 1
  59   30   33 1
  60   30   32 1
  61   31   59 1
  62   31   60 1
  63   31   61 1
  64   32   62 1
  65   32   63 1
  66   32   64 1
  67   33   65 1
  68   33   66 1
  69   33   67 1

#	End of record

