#	Name: ASD02440052
#	Creating user name:	WinNT
#	Creation time:	15. 06. 2019 20:21

#	Modifying user name:	WinNT
#	Modification time:	15. 06. 2019 20:21

#	Program:	/corina/corina34_cracker 3.40 0067  02.08.2006

@<TRIPOS>MOLECULE
ASD02440052
  48   51    0    0    0
SMALL
NO_CHARGES


@<TRIPOS>ATOM
   1 N1            -0.0747     1.2056     0.2460 N.am    
   2 C2            -0.0402    -0.1292     0.1605 C.2     
   3 S3             1.6651    -0.5927     0.0260 S.3     
   4 C4             2.2704     1.0745     0.0927 C.2     
   5 C5             1.0568     1.8898     0.2187 C.2     
   6 S6            -1.3860    -1.1872     0.1783 S.2     
   7 C7            -1.3569     1.9045     0.3629 C.3     
   8 C8            -1.7155     2.0561     1.8187 C.ar    
   9 O9             1.0891     3.1043     0.2921 O.2     
  10 C10            3.5592     1.4977     0.0400 C.2     
  11 C11            4.6555     0.5241     0.1188 C.ar    
  12 C12            4.3921    -0.8031     0.4801 C.ar    
  13 C13            5.4236    -1.7117     0.5520 C.ar    
  14 C14            6.7250    -1.3140     0.2667 C.ar    
  15 C15            6.9922     0.0024    -0.0921 C.ar    
  16 C16            5.9674     0.9180    -0.1727 C.ar    
  17 C17           -2.7831     1.2032     3.7853 C.ar    
  18 C18           -2.4510     1.0706     2.4530 C.ar    
  19 C19           -1.3029     3.1775     2.5164 C.ar    
  20 C20           -1.6276     3.3227     3.8492 C.ar    
  21 C21           -2.3745     2.3348     4.4941 C.ar    
  22 C22           -2.7268     2.4838     5.9209 C.2     
  23 O23           -3.3734     1.6209     6.4802 O.2     
  24 O24           -2.3310     3.5768     6.6018 O.3     
  25 O25            7.7385    -2.2143     0.3392 O.3     
  26 C26            7.8170    -3.1657    -0.6278 C.ar    
  27 C27            6.9611    -3.1198    -1.7191 C.ar    
  28 C28            7.0433    -4.0880    -2.7009 C.ar    
  29 C29            7.9774    -5.1022    -2.5970 C.ar    
  30 C30            8.8311    -5.1505    -1.5103 C.ar    
  31 C31            8.7569    -4.1816    -0.5286 C.ar    
  32 H32           -1.2768     2.8899    -0.0961 H       
  33 H33           -2.1317     1.3295    -0.1442 H       
  34 H34            3.7781     2.5506    -0.0599 H       
  35 H35            3.3817    -1.1129     0.7023 H       
  36 H36            5.2217    -2.7354     0.8309 H       
  37 H37            8.0050     0.3062    -0.3120 H       
  38 H38            6.1760     1.9402    -0.4518 H       
  39 H39           -3.3578     0.4336     4.2791 H       
  40 H40           -2.7661     0.1958     1.9037 H       
  41 H41           -0.7250     3.9407     2.0165 H       
  42 H42           -1.3047     4.1983     4.3927 H       
  43 H43           -2.5854     3.6297     7.5332 H       
  44 H44            6.2312    -2.3280    -1.8006 H       
  45 H45            6.3772    -4.0529    -3.5503 H       
  46 H46            8.0400    -5.8582    -3.3657 H       
  47 H47            9.5593    -5.9442    -1.4312 H       
  48 H48            9.4272    -4.2170     0.3175 H       
@<TRIPOS>BOND
   1    1    2 am
   2    1    5 am
   3    1    7 1
   4    2    3 1
   5    2    6 2
   6    3    4 1
   7    4    5 1
   8    4   10 2
   9    5    9 2
  10    7    8 1
  11    7   32 1
  12    7   33 1
  13    8   19 ar
  14    8   18 ar
  15   10   11 1
  16   10   34 1
  17   11   12 ar
  18   11   16 ar
  19   12   13 ar
  20   12   35 1
  21   13   14 ar
  22   13   36 1
  23   14   15 ar
  24   14   25 1
  25   15   16 ar
  26   15   37 1
  27   16   38 1
  28   17   18 ar
  29   17   21 ar
  30   17   39 1
  31   18   40 1
  32   19   20 ar
  33   19   41 1
  34   20   21 ar
  35   20   42 1
  36   21   22 1
  37   22   23 2
  38   22   24 1
  39   24   43 1
  40   25   26 1
  41   26   27 ar
  42   26   31 ar
  43   27   28 ar
  44   27   44 1
  45   28   29 ar
  46   28   45 1
  47   29   30 ar
  48   29   46 1
  49   30   31 ar
  50   30   47 1
  51   31   48 1

#	End of record

