#	Name: ASD02198553
#	Creating user name:	WinNT
#	Creation time:	15. 06. 2019 20:19

#	Modifying user name:	WinNT
#	Modification time:	15. 06. 2019 20:19

#	Program:	/corina/corina34_cracker 3.40 0067  02.08.2006

@<TRIPOS>MOLECULE
ASD02198553
  45   49    0    0    0
SMALL
NO_CHARGES


@<TRIPOS>ATOM
   1 C1             0.0071     1.5098     0.1334 C.2     
   2 C2             0.0746     0.1698    -0.0948 C.2     
   3 N3            -1.0518    -0.5605    -0.2646 N.pl3   
   4 N4            -2.2298    -0.0572    -0.2242 N.2     
   5 C5            -2.4376     1.2257    -0.0114 C.2     
   6 C6            -1.2793     2.1066     0.1922 C.2     
   7 C7            -0.9240    -1.9343    -0.4963 C.ar    
   8 C8            -1.3792    -3.8762    -1.8450 C.ar    
   9 C9            -0.6665    -4.6580    -0.9496 C.ar    
  10 C10           -0.0906    -4.0841     0.1695 C.ar    
  11 C11           -0.2167    -2.7282     0.3983 C.ar    
  12 C12           -3.8109     1.7685     0.0276 C.2     
  13 N13           -4.3736     2.4810     1.0489 N.pl3   
  14 N14           -5.6853     2.7991     0.6752 N.2     
  15 C15           -5.9149     2.3062    -0.5157 C.2     
  16 C16           -4.7635     1.6569    -0.9613 C.2     
  17 C17           -3.7506     2.8299     2.2539 C.ar    
  18 C18           -2.9575     1.9052     2.9204 C.ar    
  19 O19           -1.4174     3.3045     0.3938 O.2     
  20 C20           -3.9200     4.1032     2.7816 C.ar    
  21 C21           -3.3039     4.4443     3.9697 C.ar    
  22 C22           -2.5190     3.5195     4.6336 C.ar    
  23 C23           -2.3441     2.2524     4.1081 C.ar    
  24 C24           -1.5100    -2.5092    -1.6201 C.ar    
  25 O25            1.1344     2.2511     0.3051 O.3     
  26 C26            2.3828     1.5594     0.2345 C.3     
  27 O27           -2.2479    -1.9682    -2.6331 O.3     
  28 C28           -2.9110    -3.0810    -3.2619 C.3     
  29 O29           -2.0351    -4.1932    -2.9996 O.3     
  30 F30           -4.1662    -3.2964    -2.6829 F       
  31 F31           -3.0337    -2.8659    -4.6389 F       
  32 H32            1.0380    -0.3160    -0.1413 H       
  33 H33           -0.5650    -5.7191    -1.1233 H       
  34 H34            0.4637    -4.6978     0.8641 H       
  35 H35            0.2351    -2.2843     1.2730 H       
  36 H36           -6.8412     2.3920    -1.0644 H       
  37 H37           -4.6428     1.1516    -1.9081 H       
  38 H38           -2.8208     0.9153     2.5106 H       
  39 H39           -4.5326     4.8261     2.2633 H       
  40 H40           -3.4350     5.4346     4.3804 H       
  41 H41           -2.0380     3.7888     5.5624 H       
  42 H42           -1.7308     1.5322     4.6292 H       
  43 H43            2.4168     0.7914     1.0073 H       
  44 H44            2.4851     1.0934    -0.7455 H       
  45 H45            3.1987     2.2657     0.3880 H       
@<TRIPOS>BOND
   1    1    2 2
   2    1   25 1
   3    1    6 1
   4    2    3 1
   5    2   32 1
   6    3    4 1
   7    3    7 1
   8    4    5 2
   9    5    6 1
  10    5   12 1
  11    6   19 2
  12    7   24 ar
  13    7   11 ar
  14    8    9 ar
  15    8   24 ar
  16    8   29 1
  17    9   10 ar
  18    9   33 1
  19   10   11 ar
  20   10   34 1
  21   11   35 1
  22   12   13 1
  23   12   16 2
  24   13   14 1
  25   13   17 1
  26   14   15 2
  27   15   16 1
  28   15   36 1
  29   16   37 1
  30   17   20 ar
  31   17   18 ar
  32   18   23 ar
  33   18   38 1
  34   20   21 ar
  35   20   39 1
  36   21   22 ar
  37   21   40 1
  38   22   23 ar
  39   22   41 1
  40   23   42 1
  41   24   27 1
  42   25   26 1
  43   26   43 1
  44   26   44 1
  45   26   45 1
  46   27   28 1
  47   28   29 1
  48   28   30 1
  49   28   31 1

#	End of record

