#	Name: ASD05380050
#	Creating user name:	WinNT
#	Creation time:	15. 06. 2019 20:59

#	Modifying user name:	WinNT
#	Modification time:	15. 06. 2019 20:59

#	Program:	/corina/corina34_cracker 3.40 0067  02.08.2006

@<TRIPOS>MOLECULE
ASD05380050
  64   69    0    0    0
SMALL
NO_CHARGES


@<TRIPOS>ATOM
   1 C1            -0.2265     1.5762    -0.3889 C.ar    
   2 C2            -0.0888     0.1888    -0.6182 C.ar    
   3 C3             0.7586     2.4574    -0.8291 C.ar    
   4 C4             1.8645     1.9655    -1.4878 C.ar    
   5 C5             2.0028     0.6028    -1.7152 C.ar    
   6 C6             1.0411    -0.2851    -1.2874 C.ar    
   7 C7             0.6157     3.9380    -0.5871 C.3     
   8 N8            -1.0604    -0.6504    -0.1801 N.2     
   9 C9            -2.1106    -0.2095     0.4430 C.2     
  10 N10           -2.3255     1.1079     0.7067 N.am    
  11 C11           -1.4244     2.0426     0.3243 C.2     
  12 C12           -3.4868     1.4997     1.3846 C.ar    
  13 C13           -4.6416     1.7958     0.6725 C.ar    
  14 C14           -3.4874     1.5873     2.7704 C.ar    
  15 C15           -4.6344     1.9735     3.4360 C.ar    
  16 C16           -5.7814     2.2723     2.7237 C.ar    
  17 C17           -5.7853     2.1814     1.3439 C.ar    
  18 C18           -3.1445    -1.2076     0.8969 C.3     
  19 N19           -3.2460    -2.2876    -0.0877 N.pl3   
  20 C20           -4.4159    -3.0185    -0.1947 C.ar    
  21 N21           -5.4557    -2.7531     0.5882 N.ar    
  22 O22           -1.6036     3.2246     0.5535 O.2     
  23 C23           -4.5316    -4.0540    -1.1380 C.ar    
  24 C24           -5.7425    -4.7630    -1.2035 C.ar    
  25 N25           -6.7310    -4.4342    -0.3779 N.ar    
  26 C26           -6.5816    -3.4486     0.4922 C.ar    
  27 N27           -3.7071    -4.5839    -2.0748 N.2     
  28 C28           -4.3203    -5.5490    -2.6953 C.2     
  29 N29           -5.5803    -5.6988    -2.1935 N.pl3   
  30 N30            1.0095     4.2488     0.7935 N.3     
  31 C31            1.1115     5.7011     0.9981 C.3     
  32 C32            1.4647     5.9813     2.4612 C.3     
  33 O33            2.6786     5.3014     2.7920 O.3     
  34 C34            2.6145     3.8850     2.6051 C.3     
  35 C35            2.2729     3.5835     1.1434 C.3     
  36 C36           -2.7323    -1.7888     2.2509 C.3     
  37 N37           -7.6367    -3.1324     1.3323 N.pl3   
  38 H38            2.6301     2.6458    -1.8304 H       
  39 H39            2.8757     0.2345    -2.2337 H       
  40 H40            1.1599    -1.3430    -1.4694 H       
  41 H41            1.2574     4.4829    -1.2794 H       
  42 H42           -0.4217     4.2333    -0.7442 H       
  43 H43           -4.6453     1.7249    -0.4051 H       
  44 H44           -2.5921     1.3534     3.3273 H       
  45 H45           -4.6355     2.0418     4.5138 H       
  46 H46           -6.6772     2.5734     3.2465 H       
  47 H47           -6.6826     2.4158     0.7904 H       
  48 H48           -4.1104    -0.7118     0.9933 H       
  49 H49           -2.4930    -2.4902    -0.6646 H       
  50 H50           -3.8950    -6.1436    -3.4902 H       
  51 H51           -6.2400    -6.3481    -2.4833 H       
  52 H52            1.8902     6.1059     0.3517 H       
  53 H53            0.1575     6.1703     0.7576 H       
  54 H54            1.5974     7.0537     2.6046 H       
  55 H55            0.6605     5.6242     3.1046 H       
  56 H56            3.5788     3.4412     2.8525 H       
  57 H57            1.8438     3.4669     3.2526 H       
  58 H58            2.1668     2.5070     1.0091 H       
  59 H59            3.0702     3.9545     0.4994 H       
  60 H60           -2.5657    -0.9773     2.9592 H       
  61 H61           -3.5238    -2.4392     2.6232 H       
  62 H62           -1.8138    -2.3642     2.1348 H       
  63 H63           -7.5449    -2.4132     1.9766 H       
  64 H64           -8.4673    -3.6302     1.2761 H       
@<TRIPOS>BOND
   1    1    2 ar
   2    1    3 ar
   3    1   11 1
   4    2    8 1
   5    2    6 ar
   6    3    4 ar
   7    3    7 1
   8    4    5 ar
   9    4   38 1
  10    5    6 ar
  11    5   39 1
  12    6   40 1
  13    7   30 1
  14    7   41 1
  15    7   42 1
  16    8    9 2
  17    9   10 1
  18    9   18 1
  19   10   11 am
  20   10   12 1
  21   11   22 2
  22   12   13 ar
  23   12   14 ar
  24   13   17 ar
  25   13   43 1
  26   14   15 ar
  27   14   44 1
  28   15   16 ar
  29   15   45 1
  30   16   17 ar
  31   16   46 1
  32   17   47 1
  33   18   19 1
  34   18   36 1
  35   18   48 1
  36   19   20 1
  37   19   49 1
  38   20   21 ar
  39   20   23 ar
  40   21   26 ar
  41   23   24 ar
  42   23   27 1
  43   24   25 ar
  44   24   29 1
  45   25   26 ar
  46   26   37 1
  47   27   28 2
  48   28   29 1
  49   28   50 1
  50   29   51 1
  51   30   31 1
  52   30   35 1
  53   31   32 1
  54   31   52 1
  55   31   53 1
  56   32   33 1
  57   32   54 1
  58   32   55 1
  59   33   34 1
  60   34   35 1
  61   34   56 1
  62   34   57 1
  63   35   58 1
  64   35   59 1
  65   36   60 1
  66   36   61 1
  67   36   62 1
  68   37   63 1
  69   37   64 1

#	End of record

