#	Name: ASD00431188
#	Creating user name:	WinNT
#	Creation time:	15. 06. 2019 18:35

#	Modifying user name:	WinNT
#	Modification time:	15. 06. 2019 18:35

#	Program:	/corina/corina34_cracker 3.40 0067  02.08.2006

@<TRIPOS>MOLECULE
ASD00431188
  44   46    0    0    0
SMALL
NO_CHARGES


@<TRIPOS>ATOM
   1 C1             0.0630     1.5474    -0.2752 C.2     
   2 N2             0.0628     0.1998    -0.2574 N.am    
   3 O3             1.1224     2.1588    -0.2805 O.co2   
   4 O4            -0.9961     2.1590    -0.2911 O.co2   
   5 C5             1.3314    -0.5328    -0.2444 C.3     
   6 C6             1.8322    -0.6601     1.1957 C.3     
   7 S7            -0.1637    -3.0007    -0.4918 S.3     
   8 N8             0.4049    -4.2110    -1.5404 N.2     
   9 C9             1.5058    -3.7318    -2.0698 C.2     
  10 N10            1.8826    -2.5227    -1.6953 N.2     
  11 C11            1.1239    -1.9070    -0.8274 C.2     
  12 S12            3.7829    -3.9952    -3.8296 S.3     
  13 C13            3.8659    -5.4770    -4.6778 C.2     
  14 N14            2.8596    -6.2323    -4.3641 N.2     
  15 C15            1.9970    -5.7511    -3.4942 C.2     
  16 C16            2.2928    -4.5140    -3.0457 C.2     
  17 O17            4.8433    -5.8139    -5.5532 O.3     
  18 C18            4.8291    -7.0701    -6.0733 C.ar    
  19 C19            3.7940    -7.4631    -6.9093 C.ar    
  20 C20            3.7800    -8.7390    -7.4379 C.ar    
  21 C21            4.8004    -9.6275    -7.1327 C.ar    
  22 C22            5.8351    -9.2348    -6.2966 C.ar    
  23 C23            5.8526    -7.9570    -5.7727 C.ar    
  24 O24            4.7862   -10.8838    -7.6529 O.3     
  25 C25            3.6252   -11.2665    -8.3929 C.3     
  26 C26            3.8559   -10.9941    -9.8807 C.3     
  27 C27            3.3554   -12.7578    -8.1832 C.3     
  28 H28           -0.7773    -0.2851    -0.2532 H       
  29 H29            2.0686     0.0066    -0.8391 H       
  30 H30            2.7761    -1.2051     1.2053 H       
  31 H31            1.9823     0.3338     1.6173 H       
  32 H32            1.0950    -1.1995     1.7904 H       
  33 H33            1.1261    -6.3000    -3.1677 H       
  34 H34            2.9991    -6.7715    -7.1463 H       
  35 H35            2.9742    -9.0450    -8.0887 H       
  36 H36            6.6293    -9.9270    -6.0584 H       
  37 H37            6.6607    -7.6496    -5.1255 H       
  38 H38            2.7674   -10.6899    -8.0467 H       
  39 H39            2.9703   -11.2861   -10.4451 H       
  40 H40            4.0481    -9.9317   -10.0300 H       
  41 H41            4.7137   -11.5707   -10.2268 H       
  42 H42            3.1910   -12.9518    -7.1233 H       
  43 H43            2.4698   -13.0497    -8.7476 H       
  44 H44            4.2132   -13.3344    -8.5293 H       
@<TRIPOS>BOND
   1    1    2 am
   2    1    3 ar
   3    1    4 ar
   4    2    5 1
   5    2   28 1
   6    5    6 1
   7    5   11 1
   8    5   29 1
   9    6   30 1
  10    6   31 1
  11    6   32 1
  12    7    8 1
  13    7   11 1
  14    8    9 2
  15    9   10 1
  16    9   16 1
  17   10   11 2
  18   12   13 1
  19   12   16 1
  20   13   14 2
  21   13   17 1
  22   14   15 1
  23   15   16 2
  24   15   33 1
  25   17   18 1
  26   18   19 ar
  27   18   23 ar
  28   19   20 ar
  29   19   34 1
  30   20   21 ar
  31   20   35 1
  32   21   22 ar
  33   21   24 1
  34   22   23 ar
  35   22   36 1
  36   23   37 1
  37   24   25 1
  38   25   26 1
  39   25   27 1
  40   25   38 1
  41   26   39 1
  42   26   40 1
  43   26   41 1
  44   27   42 1
  45   27   43 1
  46   27   44 1

#	End of record

