#	Name: ASD05430363
#	Creating user name:	WinNT
#	Creation time:	15. 06. 2019 21:00

#	Modifying user name:	WinNT
#	Modification time:	15. 06. 2019 21:00

#	Program:	/corina/corina34_cracker 3.40 0067  02.08.2006

@<TRIPOS>MOLECULE
ASD05430363
  58   62    0    0    0
SMALL
NO_CHARGES


@<TRIPOS>ATOM
   1 C1            -1.0661    -0.5680    -0.3924 C.ar    
   2 C2            -0.0103    -0.0081     0.3266 C.ar    
   3 C3            -0.1663     1.2230     0.9509 C.ar    
   4 C4            -1.3649     1.8966     0.8632 C.ar    
   5 C5            -2.4283     1.3412     0.1438 C.ar    
   6 C6            -2.2693     0.1046    -0.4894 C.ar    
   7 C7            -4.8620     1.3700    -0.0453 C.2     
   8 C8            -3.7095     2.0592     0.0490 C.2     
   9 N9            -7.3393     1.3187    -0.1531 N.pl3   
  10 C10           -6.1577     2.0393    -0.3089 C.2     
  11 C11           -8.9961     2.5765     1.1302 C.ar    
  12 C12          -10.3580     2.7177     1.3215 C.ar    
  13 C13           -8.1284     2.7233     2.1964 C.ar    
  14 C14           -8.6216     3.0110     3.4549 C.ar    
  15 C15           -9.9854     3.1527     3.6476 C.ar    
  16 C16          -10.8535     3.0059     2.5790 C.ar    
  17 F17          -10.4687     3.4336     4.8775 F       
  18 O18           -0.9097    -1.7728    -1.0025 O.3     
  19 C19           -2.0326    -2.2865    -1.7216 C.3     
  20 C20            2.4544    -0.1702     0.1689 C.2     
  21 N21            1.2105    -0.6891     0.4198 N.pl3   
  22 C22            3.3404    -1.1624     0.3785 C.2     
  23 N23            2.6618    -2.2590     0.7473 N.2     
  24 C24            1.3852    -1.9884     0.7758 C.2     
  25 C25            4.8360    -1.0588     0.2248 C.3     
  26 C26           -4.9107    -0.1376     0.1055 C.3     
  27 C27           -6.2156    -0.5436     0.7923 C.3     
  28 O28           -7.3476    -0.0851     0.0412 O.3     
  29 C29           -8.4575     2.2561    -0.2403 C.3     
  30 C30           -7.7973     3.5019    -0.8767 C.3     
  31 N31           -6.3553     3.2522    -0.7082 N.2     
  32 C32           -8.1566     3.6029    -2.3605 C.3     
  33 O33           -7.6325     4.8198    -2.8957 O.3     
  34 H34            0.6538     1.6530     1.5066 H       
  35 H35           -1.4836     2.8532     1.3502 H       
  36 H36           -3.0878    -0.3277    -1.0458 H       
  37 H37           -3.7251     3.1391     0.0551 H       
  38 H38          -11.0349     2.6031     0.4878 H       
  39 H39           -7.0647     2.6128     2.0458 H       
  40 H40           -7.9436     3.1250     4.2878 H       
  41 H41          -11.9174     3.1165     2.7281 H       
  42 H42           -1.7740    -3.2510    -2.1586 H       
  43 H43           -2.8746    -2.4102    -1.0405 H       
  44 H44           -2.3059    -1.5900    -2.5144 H       
  45 H45            2.6801     0.8392    -0.1417 H       
  46 H46            0.5995    -2.6813     1.0383 H       
  47 H47            5.2783    -0.7527     1.1728 H       
  48 H48            5.2392    -2.0282    -0.0680 H       
  49 H49            5.0722    -0.3205    -0.5415 H       
  50 H50           -4.8589    -0.6025    -0.8790 H       
  51 H51           -4.0650    -0.4695     0.7079 H       
  52 H52           -6.2552    -1.6298     0.8744 H       
  53 H53           -6.2466    -0.1074     1.7907 H       
  54 H54           -9.2437     1.8625    -0.8845 H       
  55 H55           -8.0946     4.4066    -0.3465 H       
  56 H56           -7.7281     2.7560    -2.8966 H       
  57 H57           -9.2407     3.5935    -2.4733 H       
  58 H58           -7.8228     4.9506    -3.8347 H       
@<TRIPOS>BOND
   1    1    2 ar
   2    1   18 1
   3    1    6 ar
   4    2    3 ar
   5    2   21 1
   6    3    4 ar
   7    3   34 1
   8    4    5 ar
   9    4   35 1
  10    5    6 ar
  11    5    8 1
  12    6   36 1
  13    7    8 2
  14    7   26 1
  15    7   10 1
  16    8   37 1
  17    9   10 1
  18    9   29 1
  19    9   28 1
  20   10   31 2
  21   11   12 ar
  22   11   13 ar
  23   11   29 1
  24   12   16 ar
  25   12   38 1
  26   13   14 ar
  27   13   39 1
  28   14   15 ar
  29   14   40 1
  30   15   16 ar
  31   15   17 1
  32   16   41 1
  33   18   19 1
  34   19   42 1
  35   19   43 1
  36   19   44 1
  37   20   21 1
  38   20   22 2
  39   20   45 1
  40   21   24 1
  41   22   23 1
  42   22   25 1
  43   23   24 2
  44   24   46 1
  45   25   47 1
  46   25   48 1
  47   25   49 1
  48   26   27 1
  49   26   50 1
  50   26   51 1
  51   27   28 1
  52   27   52 1
  53   27   53 1
  54   29   30 1
  55   29   54 1
  56   30   31 1
  57   30   32 1
  58   30   55 1
  59   32   33 1
  60   32   56 1
  61   32   57 1
  62   33   58 1

#	End of record

