#	Name: ASD01910081
#	Creating user name:	WinNT
#	Creation time:	15. 06. 2019 19:55

#	Modifying user name:	WinNT
#	Modification time:	15. 06. 2019 19:55

#	Program:	/corina/corina34_cracker 3.40 0067  02.08.2006

@<TRIPOS>MOLECULE
ASD01910081
  22   23    0    0    0
SMALL
NO_CHARGES


@<TRIPOS>ATOM
   1 C1            -0.0158     1.3144     0.0093 C.ar    
   2 N2             0.0021    -0.0041     0.0020 N.ar    
   3 C3             1.1439    -0.6688    -0.0124 C.ar    
   4 C4             2.3462     0.0505    -0.0200 C.ar    
   5 C5             2.2776     1.4498    -0.0119 C.ar    
   6 N6             1.0911     2.0310     0.0025 N.ar    
   7 C7             3.6087    -0.6251    -0.0352 C.1     
   8 C8             4.6438    -1.1789    -0.0477 C.1     
   9 C9             5.9063    -1.8545    -0.0629 C.ar    
  10 C10            7.0948    -1.1201    -0.0703 C.ar    
  11 C11            8.3097    -1.7778    -0.0850 C.ar    
  12 C12            8.3510    -3.1627    -0.0924 C.ar    
  13 C13            7.1759    -3.8967    -0.0851 C.ar    
  14 C14            5.9547    -3.2508    -0.0646 C.ar    
  15 F15            9.4598    -1.0690    -0.0926 F       
  16 F16            7.2243    -5.2468    -0.0924 F       
  17 H17           -0.9680     1.8239     0.0165 H       
  18 H18            1.1503    -1.7488    -0.0179 H       
  19 H19            3.1797     2.0437    -0.0169 H       
  20 H20            7.0638    -0.0406    -0.0648 H       
  21 H21            9.3032    -3.6722    -0.1042 H       
  22 H22            5.0394    -3.8240    -0.0589 H       
@<TRIPOS>BOND
   1    1    2 ar
   2    1    6 ar
   3    1   17 1
   4    2    3 ar
   5    3    4 ar
   6    3   18 1
   7    4    5 ar
   8    4    7 1
   9    5    6 ar
  10    5   19 1
  11    7    8 3
  12    8    9 1
  13    9   10 ar
  14    9   14 ar
  15   10   11 ar
  16   10   20 1
  17   11   12 ar
  18   11   15 1
  19   12   13 ar
  20   12   21 1
  21   13   14 ar
  22   13   16 1
  23   14   22 1

#	End of record

