#	Name: ASD01420001
#	Creating user name:	WinNT
#	Creation time:	15. 06. 2019 19:20

#	Modifying user name:	WinNT
#	Modification time:	15. 06. 2019 19:20

#	Program:	/corina/corina34_cracker 3.40 0067  02.08.2006

@<TRIPOS>MOLECULE
ASD01420001
  93   94    0    0    0
SMALL
NO_CHARGES


@<TRIPOS>ATOM
   1 C1             1.3418     0.4122     2.9842 C.ar    
   2 C2             2.1130    -0.3766     3.8171 C.ar    
   3 C3             3.4823    -0.4388     3.6376 C.ar    
   4 C4             4.0802     0.2875     2.6247 C.ar    
   5 C5             3.3088     1.0756     1.7911 C.ar    
   6 C6             1.9398     1.1388     1.9716 C.ar    
   7 C7             3.9607     1.8678     0.6873 C.3     
   8 C8             4.0137     1.0206    -0.5857 C.3     
   9 C9             4.5523     1.8502    -1.7229 C.2     
  10 O10            5.6978     1.7112    -2.0962 O.2     
  11 N11            3.7303     2.7631    -2.3295 N.am    
  12 C12            4.3670     3.4832    -3.4624 C.3     
  13 C13            5.3348     2.5429    -4.1342 C.2     
  14 C14            5.1180     4.7088    -2.9382 C.3     
  15 O15            5.2512     1.3461    -3.9563 O.2     
  16 C16            4.1191     5.7022    -2.3413 C.3     
  17 C17            4.8780     6.8690    -1.7061 C.3     
  18 C18            3.2031     6.2310    -3.4468 C.3     
  19 N19            4.9046    -0.1276    -0.3762 N.am    
  20 C20            6.2320     0.0798    -0.2745 C.2     
  21 O21            6.6631     1.2133    -0.2609 O.2     
  22 C22            7.1856    -1.0812    -0.1772 C.3     
  23 C23            7.7982    -1.1274     1.2240 C.3     
  24 C24            8.6898    -2.3643     1.3504 C.3     
  25 C25            9.3996    -2.3451     2.7056 C.3     
  26 C26            7.8305    -3.6256     1.2426 C.3     
  27 N27            8.2550    -0.8944    -1.1812 N.am    
  28 C28            7.8585    -0.9255    -2.4862 C.2     
  29 O29            6.6969    -1.1212    -2.7746 O.2     
  30 C30            8.8911    -0.7117    -3.5624 C.3     
  31 C31           10.0273     0.1574    -3.0195 C.3     
  32 C32           10.6221     0.9886    -4.1580 C.3     
  33 C33            9.4824     1.0913    -1.9369 C.3     
  34 N34            6.3057     3.0541    -4.9442 N.am    
  35 C35            7.2216     2.0665    -5.5551 C.3     
  36 C36            8.2867     2.7949    -6.3772 C.3     
  37 C37            7.6213     3.5102    -7.5546 C.3     
  38 C38            8.6661     4.3394    -8.3041 C.3     
  39 C39            7.0153     2.4747    -8.5040 C.3     
  40 C40            7.8846     1.2750    -4.4578 C.2     
  41 N41            8.2412    -0.0253    -4.7078 N.am    
  42 O42            8.0992     1.7774    -3.3750 O.2     
  43 H43            0.2715     0.4572     3.1216 H       
  44 H44            1.6459    -0.9441     4.6085 H       
  45 H45            4.0849    -1.0545     4.2888 H       
  46 H46            5.1500     0.2395     2.4848 H       
  47 H47            1.3371     1.7543     1.3201 H       
  48 H48            3.3819     2.7718     0.4982 H       
  49 H49            4.9733     2.1403     0.9848 H       
  50 H50            3.0121     0.6686    -0.8324 H       
  51 H51            2.8168     2.9243    -2.0458 H       
  52 H52            3.6037     3.7959    -4.1749 H       
  53 H53            5.8264     4.3996    -2.1696 H       
  54 H54            5.6563     5.1835    -3.7586 H       
  55 H55            3.5194     5.2018    -1.5809 H       
  56 H56            5.4777     7.3694    -2.4664 H       
  57 H57            4.1664     7.5767    -1.2808 H       
  58 H58            5.5305     6.4923    -0.9184 H       
  59 H59            3.8028     6.7313    -4.2072 H       
  60 H60            2.6625     5.3997    -3.8994 H       
  61 H61            2.4915     6.9387    -3.0215 H       
  62 H62            4.5418    -1.0249    -0.3120 H       
  63 H63            6.6520    -2.0110    -0.3745 H       
  64 H64            8.3954    -0.2306     1.3892 H       
  65 H65            7.0022    -1.1758     1.9672 H       
  66 H66            9.4315    -2.3606     0.5516 H       
  67 H67            8.6579    -2.3488     3.5043 H       
  68 H68           10.0348    -3.2263     2.7956 H       
  69 H69           10.0118    -1.4465     2.7824 H       
  70 H70            7.3248    -3.6393     0.2771 H       
  71 H71            8.4657    -4.5068     1.3326 H       
  72 H72            7.0887    -3.6293     2.0413 H       
  73 H73            9.1812    -0.7578    -0.9276 H       
  74 H74            9.2882    -1.6740    -3.8854 H       
  75 H75           10.8010    -0.4809    -2.5930 H       
  76 H76            9.9003     1.7419    -4.4734 H       
  77 H77           11.5320     1.4795    -3.8124 H       
  78 H78           10.8580     0.3367    -4.9990 H       
  79 H79            8.4162     0.9089    -1.8027 H       
  80 H80           10.0042     0.9032    -0.9986 H       
  81 H81            9.6387     2.1271    -2.2383 H       
  82 H82            6.3901     4.0062    -5.1095 H       
  83 H83            6.6565     1.3954    -6.2020 H       
  84 H84            8.7945     3.5258    -5.7479 H       
  85 H85            9.0119     2.0732    -6.7533 H       
  86 H86            6.8346     4.1669    -7.1832 H       
  87 H87            9.4528     3.6827    -8.6755 H       
  88 H88            8.1921     4.8490    -9.1429 H       
  89 H89            9.0979     5.0771    -7.6277 H       
  90 H90            6.2709     1.8840    -7.9700 H       
  91 H91            6.5412     2.9843    -9.3428 H       
  92 H92            7.8020     1.8180    -8.8754 H       
  93 H93            8.0820    -0.4597    -5.5603 H       
@<TRIPOS>BOND
   1    1    2 ar
   2    1    6 ar
   3    1   43 1
   4    2    3 ar
   5    2   44 1
   6    3    4 ar
   7    3   45 1
   8    4    5 ar
   9    4   46 1
  10    5    6 ar
  11    5    7 1
  12    6   47 1
  13    7    8 1
  14    7   48 1
  15    7   49 1
  16    8    9 1
  17    8   19 1
  18    8   50 1
  19    9   10 2
  20    9   11 am
  21   11   12 1
  22   11   51 1
  23   12   13 1
  24   12   14 1
  25   12   52 1
  26   13   15 2
  27   13   34 am
  28   14   16 1
  29   14   53 1
  30   14   54 1
  31   16   17 1
  32   16   18 1
  33   16   55 1
  34   17   56 1
  35   17   57 1
  36   17   58 1
  37   18   59 1
  38   18   60 1
  39   18   61 1
  40   19   20 am
  41   19   62 1
  42   20   21 2
  43   20   22 1
  44   22   23 1
  45   22   27 1
  46   22   63 1
  47   23   24 1
  48   23   64 1
  49   23   65 1
  50   24   25 1
  51   24   26 1
  52   24   66 1
  53   25   67 1
  54   25   68 1
  55   25   69 1
  56   26   70 1
  57   26   71 1
  58   26   72 1
  59   27   28 am
  60   27   73 1
  61   28   29 2
  62   28   30 1
  63   30   31 1
  64   30   41 1
  65   30   74 1
  66   31   32 1
  67   31   33 1
  68   31   75 1
  69   32   76 1
  70   32   77 1
  71   32   78 1
  72   33   79 1
  73   33   80 1
  74   33   81 1
  75   34   35 1
  76   34   82 1
  77   35   36 1
  78   35   40 1
  79   35   83 1
  80   36   37 1
  81   36   84 1
  82   36   85 1
  83   37   38 1
  84   37   39 1
  85   37   86 1
  86   38   87 1
  87   38   88 1
  88   38   89 1
  89   39   90 1
  90   39   91 1
  91   39   92 1
  92   40   41 am
  93   40   42 2
  94   41   93 1

#	End of record

