#	Name: ASD03090614
#	Creating user name:	WinNT
#	Creation time:	15. 06. 2019 20:29

#	Modifying user name:	WinNT
#	Modification time:	15. 06. 2019 20:29

#	Program:	/corina/corina34_cracker 3.40 0067  02.08.2006

@<TRIPOS>MOLECULE
ASD03090614
  38   39    0    0    0
SMALL
NO_CHARGES


@<TRIPOS>ATOM
   1 N1            -0.0162     1.3436     0.0094 N.am    
   2 C2             0.0190     0.1476     0.6298 C.2     
   3 O3             1.0723    -0.2857     1.0556 O.2     
   4 N4            -1.1133    -0.5682     0.7783 N.am    
   5 O5            -1.7389    -3.6101     2.2168 O.3     
   6 N6            -2.0863    -2.6079     1.6362 N.2     
   7 C7            -1.0769    -1.8058     1.4203 C.2     
   8 C8             0.0645    -2.4480     1.9698 C.2     
   9 C9            -0.4221    -3.6067     2.4695 C.2     
  10 C10            0.3626    -4.6841     3.1727 C.3     
  11 C11            1.1455     2.1271    -0.0705 C.ar    
  12 C12            1.0459     3.5107    -0.1990 C.ar    
  13 C13            2.1939     4.2811    -0.2771 C.ar    
  14 C14            3.4402     3.6741    -0.2275 C.ar    
  15 C15            3.5376     2.2966    -0.1000 C.ar    
  16 C16            2.3934     1.5255    -0.0160 C.ar    
  17 C17            4.8929     1.6399    -0.0473 C.3     
  18 F18            4.7358     0.2558     0.0823 F       
  19 F19            5.5937     1.9214    -1.2250 F       
  20 F20            5.6076     2.1328     1.0497 F       
  21 O21            4.5675     4.4305    -0.3042 O.3     
  22 C22            4.3936     5.8428    -0.4349 C.3     
  23 O23           -0.1768     4.1038    -0.2479 O.3     
  24 C24           -0.2030     5.5264    -0.3804 C.3     
  25 H25           -0.8434     1.6610    -0.3853 H       
  26 H26           -1.9536    -0.2225     0.4386 H       
  27 H27            1.0845    -2.0932     1.9854 H       
  28 H28           -0.3080    -5.4948     3.4577 H       
  29 H29            1.1329    -5.0679     2.5037 H       
  30 H30            0.8306    -4.2689     4.0653 H       
  31 H31            2.1189     5.3538    -0.3771 H       
  32 H32            2.4716     0.4533     0.0877 H       
  33 H33            3.8344     6.0573    -1.3457 H       
  34 H34            3.8442     6.2225     0.4266 H       
  35 H35            5.3693     6.3259    -0.4853 H       
  36 H36           -1.2371     5.8698    -0.4071 H       
  37 H37            0.3087     5.9798     0.4686 H       
  38 H38            0.2995     5.8146    -1.3037 H       
@<TRIPOS>BOND
   1    1    2 am
   2    1   11 1
   3    1   25 1
   4    2    3 2
   5    2    4 am
   6    4    7 1
   7    4   26 1
   8    5    6 1
   9    5    9 1
  10    6    7 2
  11    7    8 1
  12    8    9 2
  13    8   27 1
  14    9   10 1
  15   10   28 1
  16   10   29 1
  17   10   30 1
  18   11   12 ar
  19   11   16 ar
  20   12   13 ar
  21   12   23 1
  22   13   14 ar
  23   13   31 1
  24   14   15 ar
  25   14   21 1
  26   15   16 ar
  27   15   17 1
  28   16   32 1
  29   17   18 1
  30   17   19 1
  31   17   20 1
  32   21   22 1
  33   22   33 1
  34   22   34 1
  35   22   35 1
  36   23   24 1
  37   24   36 1
  38   24   37 1
  39   24   38 1

#	End of record

