#	Name: ASD01230667
#	Creating user name:	WinNT
#	Creation time:	15. 06. 2019 19:14

#	Modifying user name:	WinNT
#	Modification time:	15. 06. 2019 19:14

#	Program:	/corina/corina34_cracker 3.40 0067  02.08.2006

@<TRIPOS>MOLECULE
ASD01230667
  37   39    0    0    0
SMALL
NO_CHARGES


@<TRIPOS>ATOM
   1 C1            -0.2105     1.3427     1.5462 C.ar    
   2 C2            -0.1487     0.1192     0.8637 C.ar    
   3 C3             1.0862    -0.3285     0.3952 C.ar    
   4 C4             2.2037     0.4590     0.6256 C.ar    
   5 C5             2.0645     1.6530     1.3059 C.ar    
   6 N6             0.8855     2.0573     1.7405 N.ar    
   7 N7            -1.4307     1.8095     2.0159 N.pl3   
   8 C8            -1.3752    -0.6848     0.6445 C.ar    
   9 C9            -1.6791    -1.1619    -0.6298 C.ar    
  10 C10           -2.8202    -1.9098    -0.8305 C.ar    
  11 C11           -3.6663    -2.1875     0.2349 C.ar    
  12 C12           -3.3663    -1.7137     1.5051 C.ar    
  13 C13           -2.2237    -0.9701     1.7132 C.ar    
  14 O14           -4.7903    -2.9238     0.0339 O.3     
  15 C15           -5.9410    -2.2640    -0.2616 C.ar    
  16 C16           -5.9236    -0.8902    -0.4571 C.ar    
  17 C17           -7.0941    -0.2216    -0.7579 C.ar    
  18 C18           -8.2836    -0.9206    -0.8638 C.ar    
  19 C19           -8.3033    -2.2899    -0.6689 C.ar    
  20 C20           -7.1337    -2.9636    -0.3740 C.ar    
  21 C21           -7.0759     1.2702    -0.9703 C.3     
  22 F22           -5.7706     1.7479    -0.8117 F       
  23 F23           -7.5258     1.5628    -2.2622 F       
  24 F24           -7.9144     1.8848    -0.0341 F       
  25 Br25          -9.8848    -0.0024    -1.2751 Br      
  26 H26            1.1700    -1.2662    -0.1341 H       
  27 H27            3.1751     0.1414     0.2764 H       
  28 H28            2.9352     2.2663     1.4852 H       
  29 H29           -2.2369     1.2899     1.8716 H       
  30 H30           -1.4769     2.6554     2.4884 H       
  31 H31           -1.0217    -0.9457    -1.4590 H       
  32 H32           -3.0561    -2.2797    -1.8173 H       
  33 H33           -4.0265    -1.9310     2.3318 H       
  34 H34           -1.9888    -0.6054     2.7022 H       
  35 H35           -4.9955    -0.3442    -0.3738 H       
  36 H36           -9.2329    -2.8334    -0.7517 H       
  37 H37           -7.1487    -4.0333    -0.2266 H       
@<TRIPOS>BOND
   1    1    2 ar
   2    1    6 ar
   3    1    7 1
   4    2    3 ar
   5    2    8 1
   6    3    4 ar
   7    3   26 1
   8    4    5 ar
   9    4   27 1
  10    5    6 ar
  11    5   28 1
  12    7   29 1
  13    7   30 1
  14    8    9 ar
  15    8   13 ar
  16    9   10 ar
  17    9   31 1
  18   10   11 ar
  19   10   32 1
  20   11   12 ar
  21   11   14 1
  22   12   13 ar
  23   12   33 1
  24   13   34 1
  25   14   15 1
  26   15   16 ar
  27   15   20 ar
  28   16   17 ar
  29   16   35 1
  30   17   18 ar
  31   17   21 1
  32   18   19 ar
  33   18   25 1
  34   19   20 ar
  35   19   36 1
  36   20   37 1
  37   21   22 1
  38   21   23 1
  39   21   24 1

#	End of record

