#	Name: ASD00840591
#	Creating user name:	WinNT
#	Creation time:	15. 06. 2019 18:39

#	Modifying user name:	WinNT
#	Modification time:	15. 06. 2019 18:39

#	Program:	/corina/corina34_cracker 3.40 0067  02.08.2006

@<TRIPOS>MOLECULE
ASD00840591
  92   97    0    0    0
SMALL
NO_CHARGES


@<TRIPOS>ATOM
   1 N1             1.0627     1.4574    -0.7518 N.ar    
   2 C2             1.3248     0.1656    -0.8591 C.ar    
   3 C3             1.2446    -0.6674     0.2497 C.ar    
   4 C4             0.8860    -0.1280     1.4725 C.ar    
   5 C5             0.6190     1.2326     1.5432 C.ar    
   6 C6             0.7184     2.0006     0.4005 C.ar    
   7 C7             1.5436    -2.1390     0.1225 C.3     
   8 C8             1.2615    -2.8523     1.4277 C.2     
   9 C9             0.7239    -2.7549    -1.0131 C.3     
  10 C10           -0.7383    -2.4653    -0.7915 C.2     
  11 N11           -1.6621    -2.9869    -1.6228 N.am    
  12 O12           -1.0838    -1.7628     0.1348 O.2     
  13 C13           -3.0797    -2.6248    -1.4883 C.3     
  14 C14           -3.9074    -3.9085    -1.3715 C.3     
  15 C15           -3.6015    -4.8184    -2.5634 C.3     
  16 C16           -2.1187    -5.1970    -2.5509 C.3     
  17 C17           -1.2699    -3.9235    -2.6847 C.3     
  18 C18           -4.4522    -6.0865    -2.4682 C.3     
  19 C19           -5.9361    -5.7094    -2.4823 C.3     
  20 C20           -6.7818    -6.9845    -2.4484 C.3     
  21 N21           -6.4591    -7.8185    -3.6132 N.3     
  22 C22           -5.0502    -8.2322    -3.5962 C.3     
  23 C23           -4.1529    -6.9944    -3.6644 C.3     
  24 C24           -7.3493    -8.9846    -3.6885 C.3     
  25 O25            0.1895    -2.9281     1.9900 O.2     
  26 N26            2.4217    -3.3852     1.8463 N.am    
  27 C27            3.0211    -2.3613    -0.1061 C.ar    
  28 C28            3.4738    -3.1156     0.9694 C.ar    
  29 C29            3.8819    -1.9713    -1.1071 C.ar    
  30 C30            5.2178    -2.3315    -1.0489 C.ar    
  31 C31            5.6820    -3.0838     0.0184 C.ar    
  32 C32            4.8183    -3.4754     1.0234 C.ar    
  33 Cl33           6.3073    -1.8427    -2.3091 Cl      
  34 F34            6.9850    -3.4359     0.0765 F       
  35 C35            2.2932    -5.9504     2.8350 C.ar    
  36 C36            1.0390    -6.3515     2.3976 C.ar    
  37 C37            3.3155    -6.8738     2.9460 C.ar    
  38 C38            3.0917    -8.1979     2.6216 C.ar    
  39 C39            1.8388    -8.6041     2.1836 C.ar    
  40 C40            0.8118    -7.6800     2.0718 C.ar    
  41 O41            1.6192    -9.9068     1.8651 O.3     
  42 O42            0.0341    -5.4432     2.2890 O.3     
  43 C43           -1.2308    -5.9266     1.8325 C.3     
  44 C44            2.7228   -10.8038     2.0045 C.3     
  45 O45            1.6748    -0.3512    -2.0638 O.3     
  46 C46            2.1671    -0.1894    -4.4243 C.3     
  47 C47            1.6319     0.5325    -3.1860 C.3     
  48 S48            2.5848    -4.2611     3.2422 S.o2    
  49 O49            3.9525    -4.1688     3.6163 O.2     
  50 O50            1.5179    -3.8634     4.0924 O.2     
  51 H51            0.8152    -0.7512     2.3517 H       
  52 H52            0.3362     1.6852     2.4822 H       
  53 H53            0.5120     3.0596     0.4502 H       
  54 H54            1.0396    -2.3250    -1.9637 H       
  55 H55            0.8820    -3.8333    -1.0318 H       
  56 H56           -3.2185    -2.0178    -0.5937 H       
  57 H57           -3.3983    -2.0633    -2.3665 H       
  58 H58           -3.6514    -4.4235    -0.4455 H       
  59 H59           -4.9683    -3.6582    -1.3677 H       
  60 H60           -3.8345    -4.2937    -3.4899 H       
  61 H61           -1.8795    -5.6998    -1.6138 H       
  62 H62           -1.9064    -5.8638    -3.3866 H       
  63 H63           -1.4421    -3.4705    -3.6610 H       
  64 H64           -0.2147    -4.1748    -2.5772 H       
  65 H65           -4.2189    -6.6130    -1.5428 H       
  66 H66           -6.1645    -5.0979    -1.6094 H       
  67 H67           -6.1603    -5.1481    -3.3894 H       
  68 H68           -6.5672    -7.5384    -1.5345 H       
  69 H69           -7.8389    -6.7199    -2.4728 H       
  70 H70           -4.8437    -8.7802    -2.6769 H       
  71 H71           -4.8497    -8.8738    -4.4542 H       
  72 H72           -4.3491    -6.4532    -4.5900 H       
  73 H73           -3.1073    -7.3009    -3.6359 H       
  74 H74           -8.3824    -8.6481    -3.7750 H       
  75 H75           -7.0886    -9.5851    -4.5600 H       
  76 H76           -7.2375    -9.5860    -2.7863 H       
  77 H77            3.5157    -1.3854    -1.9372 H       
  78 H78            5.1866    -4.0613     1.8525 H       
  79 H79            4.2910    -6.5596     3.2866 H       
  80 H80            3.8924    -8.9174     2.7085 H       
  81 H81           -0.1639    -7.9942     1.7316 H       
  82 H82           -1.9419    -5.1015     1.7915 H       
  83 H83           -1.1174    -6.3581     0.8380 H       
  84 H84           -1.5980    -6.6889     2.5196 H       
  85 H85            2.4126   -11.8088     1.7186 H       
  86 H86            3.5393   -10.4783     1.3599 H       
  87 H87            3.0585   -10.8084     3.0416 H       
  88 H88            3.1641    -0.5774    -4.2161 H       
  89 H89            1.5021    -1.0144    -4.6797 H       
  90 H90            2.2163     0.5095    -5.2593 H       
  91 H91            0.6027     0.8444    -3.3637 H       
  92 H92            2.2471     1.4089    -2.9821 H       
@<TRIPOS>BOND
   1    1    2 ar
   2    1    6 ar
   3    2    3 ar
   4    2   45 1
   5    3    4 ar
   6    3    7 1
   7    4    5 ar
   8    4   51 1
   9    5    6 ar
  10    5   52 1
  11    6   53 1
  12    7    8 1
  13    7    9 1
  14    7   27 1
  15    8   25 2
  16    8   26 am
  17    9   10 1
  18    9   54 1
  19    9   55 1
  20   10   11 am
  21   10   12 2
  22   11   13 1
  23   11   17 1
  24   13   14 1
  25   13   56 1
  26   13   57 1
  27   14   15 1
  28   14   58 1
  29   14   59 1
  30   15   16 1
  31   15   18 1
  32   15   60 1
  33   16   17 1
  34   16   61 1
  35   16   62 1
  36   17   63 1
  37   17   64 1
  38   18   19 1
  39   18   23 1
  40   18   65 1
  41   19   20 1
  42   19   66 1
  43   19   67 1
  44   20   21 1
  45   20   68 1
  46   20   69 1
  47   21   22 1
  48   21   24 1
  49   22   23 1
  50   22   70 1
  51   22   71 1
  52   23   72 1
  53   23   73 1
  54   24   74 1
  55   24   75 1
  56   24   76 1
  57   26   48 am
  58   26   28 1
  59   27   28 ar
  60   27   29 ar
  61   28   32 ar
  62   29   30 ar
  63   29   77 1
  64   30   31 ar
  65   30   33 1
  66   31   32 ar
  67   31   34 1
  68   32   78 1
  69   35   36 ar
  70   35   37 ar
  71   35   48 1
  72   36   42 1
  73   36   40 ar
  74   37   38 ar
  75   37   79 1
  76   38   39 ar
  77   38   80 1
  78   39   40 ar
  79   39   41 1
  80   40   81 1
  81   41   44 1
  82   42   43 1
  83   43   82 1
  84   43   83 1
  85   43   84 1
  86   44   85 1
  87   44   86 1
  88   44   87 1
  89   45   47 1
  90   46   47 1
  91   46   88 1
  92   46   89 1
  93   46   90 1
  94   47   91 1
  95   47   92 1
  96   48   49 2
  97   48   50 2

#	End of record

