#	Name: ASD05143071
#	Creating user name:	WinNT
#	Creation time:	15. 06. 2019 20:57

#	Modifying user name:	WinNT
#	Modification time:	15. 06. 2019 20:57

#	Program:	/corina/corina34_cracker 3.40 0067  02.08.2006

@<TRIPOS>MOLECULE
ASD05143071
 147  150    0    0    0
SMALL
NO_CHARGES


@<TRIPOS>ATOM
   1 C1            -2.0237     2.7531     5.0245 C.2     
   2 C2            -1.5116     1.6443     5.9074 C.3     
   3 N3            -1.1606     3.4841     4.2917 N.am    
   4 O4            -3.2130     2.9842     4.9695 O.2     
   5 C5            -1.6584     4.5619     3.4334 C.3     
   6 C6            -2.6251     3.9840     2.3979 C.3     
   7 C7            -2.3770     5.5839     4.2761 C.2     
   8 C8            -1.8665     3.0398     1.4631 C.3     
   9 C9            -2.8333     2.4619     0.4276 C.3     
  10 N10           -2.1070     1.5578    -0.4675 N.pl3   
  11 C11           -2.7728     0.9163    -1.4851 C.2     
  12 N12           -2.0912     0.0678    -2.3251 N.pl3   
  13 N13           -4.0503     1.1126    -1.6533 N.2     
  14 O14           -2.7849     5.2828     5.3778 O.2     
  15 N15           -2.5662     6.8326     3.8055 N.am    
  16 C16           -3.2648     7.8261     4.6248 C.3     
  17 C17           -2.2467     8.7934     5.2320 C.3     
  18 C18           -1.0812     8.0009     5.8269 C.3     
  19 C19           -0.0390     7.7653     4.7643 C.2     
  20 N20            1.2745     7.9827     5.0715 N.am    
  21 C21            2.2339     7.7217     3.9743 C.3     
  22 C22            2.3912     8.9989     3.1467 C.3     
  23 C23            2.9176     8.6425     1.7550 C.3     
  24 C24            3.9064     9.7148     1.2931 C.3     
  25 N25            3.7426     9.9196    -0.1602 N.am    
  26 C26            5.3142     9.2624     1.5837 C.2     
  27 N27            5.8177     9.3838     2.8280 N.am    
  28 O28            5.9941     8.7890     0.6980 O.2     
  29 C29            2.9414    10.9513    -0.5423 C.2     
  30 O30            2.4075    11.6547     0.2890 O.2     
  31 C31            2.7264    11.2089    -2.0115 C.3     
  32 N32            1.5447    12.0879    -2.1678 N.am    
  33 C33            3.9602    11.8976    -2.5984 C.3     
  34 C34            0.4105    11.4698    -2.6131 C.2     
  35 O35            0.4100    10.2823    -2.8592 O.2     
  36 C36           -0.8400    12.2916    -2.7920 C.3     
  37 N37           -2.0149    11.4073    -2.6594 N.am    
  38 C38           -0.8951    13.3814    -1.7195 C.3     
  39 C39           -3.0311    11.8581    -1.8736 C.2     
  40 O40           -2.9484    12.9326    -1.3172 O.2     
  41 C41           -4.2605    11.0029    -1.7054 C.3     
  42 C42            3.7931    12.0429    -4.0890 C.2     
  43 C43            3.0967    13.1268    -4.7862 C.ar    
  44 C44            3.2009    12.8363    -6.1586 C.ar    
  45 N45            3.9098    11.6614    -6.2724 N.pl3   
  46 C46            4.2591    11.2066    -5.0300 C.2     
  47 C47            2.4207    14.2741    -4.3663 C.ar    
  48 C48            1.8632    15.1099    -5.2921 C.ar    
  49 C49            1.9629    14.8274    -6.6478 C.ar    
  50 C50            2.6260    13.7016    -7.0839 C.ar    
  51 N51           -4.7231    11.1077    -0.3026 N.am    
  52 C52           -3.9202     9.5462    -2.0262 C.3     
  53 C53           -5.1677     8.7061    -1.9308 C.ar    
  54 C54           -6.1658     8.8383    -2.8809 C.ar    
  55 C55           -7.3117     8.0658    -2.7920 C.ar    
  56 C56           -7.4575     7.1640    -1.7552 C.ar    
  57 C57           -6.4599     7.0328    -0.8069 C.ar    
  58 C58           -5.3133     7.7994    -0.8978 C.ar    
  59 C59           -4.2356     8.5937     3.7646 C.2     
  60 O60           -5.4303     8.4986     3.9502 O.2     
  61 C61           -0.7685    12.7418    -0.3354 C.3     
  62 C62           -0.9499    13.8142     0.7406 C.3     
  63 N63           -0.8287    13.2017     2.0659 N.pl3   
  64 C64           -0.9564    13.9755     3.1951 C.2     
  65 N65           -0.8426    13.4007     4.4388 N.pl3   
  66 N66           -1.1853    15.2541     3.0865 N.2     
  67 N67           -3.7521     9.3951     2.7760 N.am    
  68 C68           -4.7505    10.1222     1.9669 C.3     
  69 C69           -4.3178    10.0979     0.5236 C.2     
  70 O70           -3.6223     9.1978     0.1029 O.2     
  71 C71           -4.8448    11.5710     2.4495 C.3     
  72 C72           -5.3876    11.5978     3.8798 C.3     
  73 F73           -6.0224     9.7207    -3.8939 F       
  74 O74           -0.3601     7.3892     3.6569 O.2     
  75 C75           -5.4805    13.0249     4.3552 C.2     
  76 O76           -5.1455    13.9312     3.6222 O.2     
  77 N77           -5.9358    13.2939     5.5948 N.am    
  78 H78           -1.2906     2.0415     6.8981 H       
  79 H79           -2.2697     0.8654     5.9891 H       
  80 H80           -0.6042     1.2242     5.4737 H       
  81 H81           -0.2097     3.2966     4.3326 H       
  82 H82           -0.8202     5.0364     2.9229 H       
  83 H83           -3.4161     3.4333     2.9069 H       
  84 H84           -3.0633     4.7957     1.8171 H       
  85 H85           -1.0755     3.5905     0.9540 H       
  86 H86           -1.4284     2.2281     2.0438 H       
  87 H87           -3.6243     1.9112     0.9366 H       
  88 H88           -3.2715     3.2736    -0.1532 H       
  89 H89           -1.1562     1.4117    -0.3423 H       
  90 H90           -1.1404    -0.0782    -2.1999 H       
  91 H91           -2.5609    -0.3847    -3.0430 H       
  92 H92           -4.5201     0.6600    -2.3712 H       
  93 H93           -2.2399     7.0735     2.9244 H       
  94 H94           -3.8078     7.3213     5.4238 H       
  95 H95           -1.8731     9.4617     4.4562 H       
  96 H96           -2.7255     9.3794     6.0165 H       
  97 H97           -0.6406     8.5648     6.6491 H       
  98 H98           -1.4451     7.0426     6.1976 H       
  99 H99            1.5587     8.2872     5.9475 H       
 100 H100           3.1990     7.4359     4.3927 H       
 101 H101           1.8555     6.9196     3.3407 H       
 102 H102           1.4241     9.4931     3.0539 H       
 103 H103           3.0953     9.6680     3.6413 H       
 104 H104           3.4210     7.6765     1.7934 H       
 105 H105           2.0846     8.5903     1.0539 H       
 106 H106           3.7049    10.6482     1.8185 H       
 107 H107           4.1829     9.3483    -0.8087 H       
 108 H108           5.2740     9.7625     3.5364 H       
 109 H109           6.7239     9.0926     3.0151 H       
 110 H110           2.5510    10.2646    -2.5269 H       
 111 H111           1.5741    13.0367    -1.9683 H       
 112 H112           4.0748    12.8835    -2.1478 H       
 113 H113           4.8455    11.2972    -2.3888 H       
 114 H114          -0.8375    12.7498    -3.7810 H       
 115 H115          -2.0603    10.5490    -3.1090 H       
 116 H116          -0.0749    14.0830    -1.8719 H       
 117 H117          -1.8447    13.9120    -1.7891 H       
 118 H118          -5.0447    11.3539    -2.3762 H       
 119 H119           4.1318    11.2233    -7.1089 H       
 120 H120           4.8198    10.3045    -4.8351 H       
 121 H121           2.3386    14.4999    -3.3133 H       
 122 H122           1.3405    15.9972    -4.9669 H       
 123 H123           1.5167    15.4976    -7.3676 H       
 124 H124           2.6984    13.4907    -8.1407 H       
 125 H125          -5.2752    11.8422     0.0081 H       
 126 H126          -3.5150     9.4816    -3.0360 H       
 127 H127          -3.1806     9.1805    -1.3139 H       
 128 H128          -8.0912     8.1683    -3.5324 H       
 129 H129          -8.3512     6.5617    -1.6855 H       
 130 H130          -6.5749     6.3280     0.0033 H       
 131 H131          -4.5347     7.6960    -0.1565 H       
 132 H132          -1.5349    11.9757    -0.2178 H       
 133 H133           0.2174    12.2881    -0.2337 H       
 134 H134          -0.1835    14.5803     0.6229 H       
 135 H135          -1.9357    14.2679     0.6388 H       
 136 H136          -0.6583    12.2502     2.1467 H       
 137 H137          -0.6723    12.4492     4.5196 H       
 138 H138          -0.9327    13.9466     5.2355 H       
 139 H139          -1.2754    15.8000     3.8832 H       
 140 H140          -2.8002     9.4842     2.6118 H       
 141 H141          -5.7224     9.6386     2.0650 H       
 142 H142          -3.8546    12.0263     2.4281 H       
 143 H143          -5.5154    12.1289     1.7959 H       
 144 H144          -6.3778    11.1426     3.9011 H       
 145 H145          -4.7171    11.0400     4.5334 H       
 146 H146          -6.2038    12.5690     6.1810 H       
 147 H147          -5.9956    14.2124     5.9008 H       
@<TRIPOS>BOND
   1    1    2 1
   2    1    3 am
   3    1    4 2
   4    2   78 1
   5    2   79 1
   6    2   80 1
   7    3    5 1
   8    3   81 1
   9    5    6 1
  10    5    7 1
  11    5   82 1
  12    6    8 1
  13    6   83 1
  14    6   84 1
  15    7   14 2
  16    7   15 am
  17    8    9 1
  18    8   85 1
  19    8   86 1
  20    9   10 1
  21    9   87 1
  22    9   88 1
  23   10   11 1
  24   10   89 1
  25   11   12 1
  26   11   13 2
  27   12   90 1
  28   12   91 1
  29   13   92 1
  30   15   16 1
  31   15   93 1
  32   16   17 1
  33   16   59 1
  34   16   94 1
  35   17   18 1
  36   17   95 1
  37   17   96 1
  38   18   19 1
  39   18   97 1
  40   18   98 1
  41   19   20 am
  42   19   74 2
  43   20   21 1
  44   20   99 1
  45   21   22 1
  46   21  100 1
  47   21  101 1
  48   22   23 1
  49   22  102 1
  50   22  103 1
  51   23   24 1
  52   23  104 1
  53   23  105 1
  54   24   25 1
  55   24   26 1
  56   24  106 1
  57   25   29 am
  58   25  107 1
  59   26   27 am
  60   26   28 2
  61   27  108 1
  62   27  109 1
  63   29   30 2
  64   29   31 1
  65   31   32 1
  66   31   33 1
  67   31  110 1
  68   32   34 am
  69   32  111 1
  70   33   42 1
  71   33  112 1
  72   33  113 1
  73   34   35 2
  74   34   36 1
  75   36   37 1
  76   36   38 1
  77   36  114 1
  78   37   39 am
  79   37  115 1
  80   38   61 1
  81   38  116 1
  82   38  117 1
  83   39   40 2
  84   39   41 1
  85   41   51 1
  86   41   52 1
  87   41  118 1
  88   42   43 1
  89   42   46 2
  90   43   44 ar
  91   43   47 ar
  92   44   45 1
  93   44   50 ar
  94   45   46 1
  95   45  119 1
  96   46  120 1
  97   47   48 ar
  98   47  121 1
  99   48   49 ar
 100   48  122 1
 101   49   50 ar
 102   49  123 1
 103   50  124 1
 104   51   69 am
 105   51  125 1
 106   52   53 1
 107   52  126 1
 108   52  127 1
 109   53   54 ar
 110   53   58 ar
 111   54   55 ar
 112   54   73 1
 113   55   56 ar
 114   55  128 1
 115   56   57 ar
 116   56  129 1
 117   57   58 ar
 118   57  130 1
 119   58  131 1
 120   59   60 2
 121   59   67 am
 122   61   62 1
 123   61  132 1
 124   61  133 1
 125   62   63 1
 126   62  134 1
 127   62  135 1
 128   63   64 1
 129   63  136 1
 130   64   65 1
 131   64   66 2
 132   65  137 1
 133   65  138 1
 134   66  139 1
 135   67   68 1
 136   67  140 1
 137   68   69 1
 138   68   71 1
 139   68  141 1
 140   69   70 2
 141   71   72 1
 142   71  142 1
 143   71  143 1
 144   72   75 1
 145   72  144 1
 146   72  145 1
 147   75   76 2
 148   75   77 am
 149   77  146 1
 150   77  147 1

#	End of record

