#	Name: ASD01940631
#	Creating user name:	WinNT
#	Creation time:	15. 06. 2019 20:12

#	Modifying user name:	WinNT
#	Modification time:	15. 06. 2019 20:12

#	Program:	/corina/corina34_cracker 3.40 0067  02.08.2006

@<TRIPOS>MOLECULE
ASD01940631
  52   54    0    0    0
SMALL
NO_CHARGES


@<TRIPOS>ATOM
   1 C1             0.5416     1.6012     0.0309 C.ar    
   2 C2             0.2348     0.2458     0.2269 C.ar    
   3 C3             1.2475    -0.6550     0.5091 C.ar    
   4 C4             2.5613    -0.2233     0.5986 C.ar    
   5 C5             2.8763     1.1113     0.4073 C.ar    
   6 C6             1.8770     2.0301     0.1236 C.ar    
   7 N7             2.1945     3.3689    -0.0686 N.pl3   
   8 C8             3.3694     3.8948     0.4793 C.ar    
   9 C9             3.9642     3.2785     1.5716 C.ar    
  10 C10            5.1246     3.8001     2.1108 C.ar    
  11 C11            5.6945     4.9352     1.5640 C.ar    
  12 C12            5.1053     5.5532     0.4750 C.ar    
  13 C13            3.9475     5.0334    -0.0730 C.ar    
  14 F14            3.3751     5.6334    -1.1396 F       
  15 I15            7.4535     5.7215     2.3865 I       
  16 F16            3.5416    -1.1109     0.8750 F       
  17 C17           -0.5257     2.5648    -0.2752 C.2     
  18 O18           -1.1009     3.1426     0.6277 O.2     
  19 N19           -0.8669     2.8081    -1.5562 N.am    
  20 O20           -1.0501    -0.1803     0.1405 O.3     
  21 C21           -1.2903    -1.5120     0.2650 C.ar    
  22 C22           -1.3006    -2.1004     1.5199 C.ar    
  23 C23           -1.5463    -3.4611     1.6435 C.ar    
  24 C24           -1.7811    -4.2285     0.5093 C.ar    
  25 C25           -1.7696    -3.6382    -0.7398 C.ar    
  26 C26           -1.5313    -2.2829    -0.8642 C.ar    
  27 N27           -1.5570    -4.0579     2.9062 N.am    
  28 S28           -2.8364    -3.8105     3.9281 S.o2    
  29 O29           -2.4837    -4.5182     5.1088 O.2     
  30 O30           -3.0056    -2.3997     3.9426 O.2     
  31 C31           -4.2381    -4.6113     3.1007 C.3     
  32 C32           -5.5179    -4.3493     3.8972 C.3     
  33 N33           -6.6530    -4.9978     3.2271 N.3     
  34 H34            1.0127    -1.6982     0.6605 H       
  35 H35            3.9032     1.4378     0.4791 H       
  36 H36            1.6016     3.9390    -0.5827 H       
  37 H37            3.5201     2.3921     2.0000 H       
  38 H38            5.5870     3.3206     2.9609 H       
  39 H39            5.5526     6.4398     0.0504 H       
  40 H40           -0.4082     2.3474    -2.2761 H       
  41 H41           -1.5710     3.4439    -1.7582 H       
  42 H42           -1.1174    -1.5015     2.3998 H       
  43 H43           -1.9724    -5.2872     0.6042 H       
  44 H44           -1.9516    -4.2364    -1.6203 H       
  45 H45           -1.5281    -1.8234    -1.8416 H       
  46 H46           -0.8151    -4.6174     3.1845 H       
  47 H47           -4.3465    -4.2053     2.0950 H       
  48 H48           -4.0602    -5.6850     3.0419 H       
  49 H49           -5.4095    -4.7552     4.9029 H       
  50 H50           -5.6959    -3.2755     3.9560 H       
  51 H51           -7.5108    -4.8393     3.7342 H       
  52 H52           -6.7351    -4.6855     2.2712 H       
@<TRIPOS>BOND
   1    1    2 ar
   2    1    6 ar
   3    1   17 1
   4    2    3 ar
   5    2   20 1
   6    3    4 ar
   7    3   34 1
   8    4    5 ar
   9    4   16 1
  10    5    6 ar
  11    5   35 1
  12    6    7 1
  13    7    8 1
  14    7   36 1
  15    8    9 ar
  16    8   13 ar
  17    9   10 ar
  18    9   37 1
  19   10   11 ar
  20   10   38 1
  21   11   12 ar
  22   11   15 1
  23   12   13 ar
  24   12   39 1
  25   13   14 1
  26   17   18 2
  27   17   19 am
  28   19   40 1
  29   19   41 1
  30   20   21 1
  31   21   22 ar
  32   21   26 ar
  33   22   23 ar
  34   22   42 1
  35   23   24 ar
  36   23   27 1
  37   24   25 ar
  38   24   43 1
  39   25   26 ar
  40   25   44 1
  41   26   45 1
  42   27   28 am
  43   27   46 1
  44   28   29 2
  45   28   30 2
  46   28   31 1
  47   31   32 1
  48   31   47 1
  49   31   48 1
  50   32   33 1
  51   32   49 1
  52   32   50 1
  53   33   51 1
  54   33   52 1

#	End of record

