#	Name: ASD01811200
#	Creating user name:	WinNT
#	Creation time:	15. 06. 2019 19:26

#	Modifying user name:	WinNT
#	Modification time:	15. 06. 2019 19:26

#	Program:	/corina/corina34_cracker 3.40 0067  02.08.2006

@<TRIPOS>MOLECULE
ASD01811200
  59   62    0    0    0
SMALL
NO_CHARGES


@<TRIPOS>ATOM
   1 C1            -0.0007     1.3828    -0.2337 C.2     
   2 C2             0.0440    -0.0804    -0.0342 C.ar    
   3 C3             1.2735    -0.7331     0.0900 C.ar    
   4 C4             1.3167    -2.1002     0.2765 C.ar    
   5 C5             0.1472    -2.8319     0.3416 C.ar    
   6 C6            -1.0884    -2.1924     0.2185 C.ar    
   7 C7            -1.1398    -0.8121     0.0364 C.ar    
   8 O8             1.0232     2.0344    -0.1822 O.2     
   9 O9            -1.1761     1.9937    -0.4784 O.3     
  10 C10            0.2044    -4.3240     0.5453 C.3     
  11 C11            0.0479    -5.0293    -0.8033 C.3     
  12 C12            2.5548     0.0570     0.0197 C.3     
  13 C13            3.3944     0.1564     1.2949 C.3     
  14 C14            3.8695    -0.7174     0.1324 C.3     
  15 C15           -2.3393    -2.9777     0.2880 C.2     
  16 O16           -2.5201    -3.7526     1.2069 O.2     
  17 N17           -3.2790    -2.8342    -0.6674 N.am    
  18 C18           -4.5753    -3.5160    -0.5508 C.3     
  19 C19           -4.8234    -4.3252    -1.8277 C.3     
  20 C20           -4.7057    -3.4022    -3.0427 C.3     
  21 C21           -3.2922    -2.8190    -3.1075 C.3     
  22 C22           -3.0288    -1.9883    -1.8424 C.3     
  23 C23           -4.9828    -4.1877    -4.2986 C.ar    
  24 C24           -6.0316    -3.8207    -5.1231 C.ar    
  25 C25           -6.2908    -4.5353    -6.2742 C.ar    
  26 C26           -5.4916    -5.6309    -6.6068 C.ar    
  27 C27           -4.4345    -5.9954    -5.7705 C.ar    
  28 C28           -4.1836    -5.2690    -4.6249 C.ar    
  29 C29           -5.7552    -6.3776    -7.8000 C.1     
  30 N30           -5.9642    -6.9699    -8.7465 N.1     
  31 C31           -1.1447     3.4334    -0.6642 C.3     
  32 H32            2.2694    -2.5999     0.3715 H       
  33 H33           -2.0928    -0.3120    -0.0541 H       
  34 H34            1.1635    -4.5939     0.9874 H       
  35 H35           -0.6019    -4.6309     1.2115 H       
  36 H36            0.0893    -6.1085    -0.6560 H       
  37 H37           -0.9112    -4.7595    -1.2454 H       
  38 H38            0.8542    -4.7224    -1.4695 H       
  39 H39            2.5364     0.9248    -0.6396 H       
  40 H40            3.9286     1.0894     1.4744 H       
  41 H41            3.0199    -0.3498     2.1847 H       
  42 H42            3.8076    -1.7985     0.2573 H       
  43 H43            4.7163    -0.3593    -0.4531 H       
  44 H44           -4.5599    -4.1857     0.3090 H       
  45 H45           -5.3669    -2.7770    -0.4269 H       
  46 H46           -4.0834    -5.1219    -1.9030 H       
  47 H47           -5.8231    -4.7583    -1.7954 H       
  48 H48           -5.4292    -2.5917    -2.9545 H       
  49 H49           -2.5667    -3.6300    -3.1708 H       
  50 H50           -3.2021    -2.1802    -3.9861 H       
  51 H51           -3.6969    -1.1273    -1.8216 H       
  52 H52           -1.9928    -1.6497    -1.8350 H       
  53 H53           -6.6490    -2.9731    -4.8646 H       
  54 H54           -7.1103    -4.2483    -6.9165 H       
  55 H55           -3.8125    -6.8417    -6.0219 H       
  56 H56           -3.3637    -5.5473    -3.9793 H       
  57 H57           -0.7499     3.9072     0.2345 H       
  58 H58           -0.5061     3.6763    -1.5135 H       
  59 H59           -2.1546     3.7974    -0.8532 H       
@<TRIPOS>BOND
   1    1    2 1
   2    1    8 2
   3    1    9 1
   4    2    3 ar
   5    2    7 ar
   6    3    4 ar
   7    3   12 1
   8    4    5 ar
   9    4   32 1
  10    5    6 ar
  11    5   10 1
  12    6    7 ar
  13    6   15 1
  14    7   33 1
  15    9   31 1
  16   10   11 1
  17   10   34 1
  18   10   35 1
  19   11   36 1
  20   11   37 1
  21   11   38 1
  22   12   13 1
  23   12   14 1
  24   12   39 1
  25   13   14 1
  26   13   40 1
  27   13   41 1
  28   14   42 1
  29   14   43 1
  30   15   16 2
  31   15   17 am
  32   17   18 1
  33   17   22 1
  34   18   19 1
  35   18   44 1
  36   18   45 1
  37   19   20 1
  38   19   46 1
  39   19   47 1
  40   20   21 1
  41   20   23 1
  42   20   48 1
  43   21   22 1
  44   21   49 1
  45   21   50 1
  46   22   51 1
  47   22   52 1
  48   23   24 ar
  49   23   28 ar
  50   24   25 ar
  51   24   53 1
  52   25   26 ar
  53   25   54 1
  54   26   27 ar
  55   26   29 1
  56   27   28 ar
  57   27   55 1
  58   28   56 1
  59   29   30 3
  60   31   57 1
  61   31   58 1
  62   31   59 1

#	End of record

