#	Name: ASD01900013
#	Creating user name:	WinNT
#	Creation time:	15. 06. 2019 19:51

#	Modifying user name:	WinNT
#	Modification time:	15. 06. 2019 19:51

#	Program:	/corina/corina34_cracker 3.40 0067  02.08.2006

@<TRIPOS>MOLECULE
ASD01900013
  38   40    0    0    0
SMALL
NO_CHARGES


@<TRIPOS>ATOM
   1 C1            -0.0168     1.3887     0.0097 C.ar    
   2 C2             0.0021    -0.0041     0.0020 C.ar    
   3 C3             1.1794    -0.6880    -0.0125 C.ar    
   4 C4             2.3946     0.0170    -0.0203 C.ar    
   5 C5             2.3753     1.4339    -0.0130 C.ar    
   6 C6             1.1415     2.1047     0.0025 C.ar    
   7 N7             3.5668    -0.6296    -0.0341 N.ar    
   8 C8             4.6928     0.0597    -0.0408 C.ar    
   9 C9             4.6687     1.4661    -0.0331 C.ar    
  10 N10            3.5294     2.1140    -0.0200 N.ar    
  11 C11            5.9648     2.2350    -0.0405 C.3     
  12 N12            5.9075    -0.6073    -0.0550 N.pl3   
  13 N13            5.9375    -2.0080    -0.0622 N.2     
  14 C14            7.0755    -2.6329    -0.0756 C.2     
  15 C15            7.1071    -4.1063    -0.0832 C.ar    
  16 C16            8.3288    -4.7823    -0.0975 C.ar    
  17 C17            8.3513    -6.1617    -0.1041 C.ar    
  18 C18            7.1677    -6.8789    -0.0965 C.ar    
  19 C19            5.9515    -6.2211    -0.0823 C.ar    
  20 C20            5.9108    -4.8371    -0.0702 C.ar    
  21 O21            4.7166    -4.1900    -0.0562 O.3     
  22 C22            3.5396    -5.0005    -0.0549 C.3     
  23 H23           -0.9637     1.9081     0.0170 H       
  24 H24           -0.9302    -0.5492     0.0080 H       
  25 H25            1.1790    -1.7680    -0.0176 H       
  26 H26            1.1114     3.1843     0.0082 H       
  27 H27            6.2682     2.4259    -1.0698 H       
  28 H28            5.8277     3.1831     0.4796 H       
  29 H29            6.7358     1.6523     0.4635 H       
  30 H30            6.7370    -0.1044    -0.0600 H       
  31 H31            7.9990    -2.0730    -0.0811 H       
  32 H32            9.2546    -4.2263    -0.1038 H       
  33 H33            9.2965    -6.6841    -0.1156 H       
  34 H34            7.1940    -7.9586    -0.1021 H       
  35 H35            5.0321    -6.7876    -0.0765 H       
  36 H36            2.6576    -4.3602    -0.0432 H       
  37 H37            3.5255    -5.6221    -0.9501 H       
  38 H38            3.5380    -5.6373     0.8297 H       
@<TRIPOS>BOND
   1    1    2 ar
   2    1    6 ar
   3    1   23 1
   4    2    3 ar
   5    2   24 1
   6    3    4 ar
   7    3   25 1
   8    4    5 ar
   9    4    7 ar
  10    5    6 ar
  11    5   10 ar
  12    6   26 1
  13    7    8 ar
  14    8    9 ar
  15    8   12 1
  16    9   10 ar
  17    9   11 1
  18   11   27 1
  19   11   28 1
  20   11   29 1
  21   12   13 1
  22   12   30 1
  23   13   14 2
  24   14   15 1
  25   14   31 1
  26   15   16 ar
  27   15   20 ar
  28   16   17 ar
  29   16   32 1
  30   17   18 ar
  31   17   33 1
  32   18   19 ar
  33   18   34 1
  34   19   20 ar
  35   19   35 1
  36   20   21 1
  37   21   22 1
  38   22   36 1
  39   22   37 1
  40   22   38 1

#	End of record

