#	Name: ASD01880027
#	Creating user name:	WinNT
#	Creation time:	15. 06. 2019 19:39

#	Modifying user name:	WinNT
#	Modification time:	15. 06. 2019 19:39

#	Program:	/corina/corina34_cracker 3.40 0067  02.08.2006

@<TRIPOS>MOLECULE
ASD01880027
  56   57    0    0    0
SMALL
NO_CHARGES


@<TRIPOS>ATOM
   1 C1            -0.0145     1.3732     0.1081 C.ar    
   2 C2             0.0038    -0.0093     0.1108 C.ar    
   3 C3            -1.1826    -0.7170     0.1127 C.ar    
   4 C4            -2.3931    -0.0393     0.1119 C.ar    
   5 C5            -2.4088     1.3479     0.1091 C.ar    
   6 C6            -1.2196     2.0510     0.1130 C.ar    
   7 C7           -10.8409    -0.9751     0.1154 C.ar    
   8 C8           -10.8198    -2.3673     0.1177 C.ar    
   9 C9           -11.9861    -3.0757     0.1244 C.ar    
  10 C10          -13.2157    -2.4036     0.1295 C.ar    
  11 C11          -13.2403    -0.9970     0.1276 C.ar    
  12 C12          -12.0492    -0.2924     0.1203 C.ar    
  13 O13          -14.4241    -0.3355     0.1320 O.3     
  14 C14          -14.4691    -3.1618     0.1361 C.2     
  15 C15          -14.4420    -4.6635     0.0125 C.3     
  16 O16          -15.5291    -2.5807     0.2412 O.2     
  17 O17           -3.5616    -0.7332     0.1133 O.3     
  18 C18           -4.7696     0.0303     0.1123 C.3     
  19 C19           -8.4665    -1.0459     0.1150 C.3     
  20 C20           -5.9714    -0.9165     0.1142 C.3     
  21 C21           -7.2647    -0.0990     0.1131 C.3     
  22 O22           -9.6744    -0.2824     0.1140 O.3     
  23 C23          -12.0642     1.2145     0.1188 C.3     
  24 C24          -12.0614     1.7260     1.5607 C.3     
  25 C25          -12.0766     3.2559     1.5591 C.3     
  26 S26            1.5005     2.2729     0.1056 S.o2    
  27 N27            1.9213     2.5200    -1.4768 N.am    
  28 O28            1.2076     3.5534     0.6476 O.2     
  29 O29            2.4838     1.4043     0.6514 O.2     
  30 H30            0.9465    -0.5364     0.1111 H       
  31 H31           -1.1678    -1.7969     0.1145 H       
  32 H32           -3.3499     1.8778     0.1085 H       
  33 H33           -1.2313     3.1309     0.1108 H       
  34 H34           -9.8745    -2.8896     0.1139 H       
  35 H35          -11.9614    -4.1555     0.1255 H       
  36 H36          -14.7635    -0.1424     1.0166 H       
  37 H37          -13.4189    -4.9950    -0.1650 H       
  38 H38          -14.8141    -5.1107     0.9343 H       
  39 H39          -15.0734    -4.9709    -0.8211 H       
  40 H40           -4.8019     0.6603     1.0013 H       
  41 H41           -4.8024     0.6573    -0.7787 H       
  42 H42           -8.4341    -1.6758    -0.7739 H       
  43 H43           -8.4337    -1.6729     1.0060 H       
  44 H44           -5.9390    -1.5465    -0.7747 H       
  45 H45           -5.9386    -1.5435     1.0052 H       
  46 H46           -7.2975     0.5280    -0.7779 H       
  47 H47           -7.2971     0.5309     1.0021 H       
  48 H48          -11.1808     1.5861    -0.4003 H       
  49 H49          -12.9606     1.5684    -0.3905 H       
  50 H50          -12.9449     1.3544     2.0798 H       
  51 H51          -11.1650     1.3721     2.0700 H       
  52 H52          -12.0746     3.6204     2.5864 H       
  53 H53          -11.1931     3.6276     1.0401 H       
  54 H54          -12.9730     3.6098     1.0498 H       
  55 H55            1.3545     2.1822    -2.1878 H       
  56 H56            2.7346     3.0026    -1.6927 H       
@<TRIPOS>BOND
   1    1    2 ar
   2    1   26 1
   3    1    6 ar
   4    2    3 ar
   5    2   30 1
   6    3    4 ar
   7    3   31 1
   8    4    5 ar
   9    4   17 1
  10    5    6 ar
  11    5   32 1
  12    6   33 1
  13    7    8 ar
  14    7   12 ar
  15    7   22 1
  16    8    9 ar
  17    8   34 1
  18    9   10 ar
  19    9   35 1
  20   10   11 ar
  21   10   14 1
  22   11   12 ar
  23   11   13 1
  24   12   23 1
  25   13   36 1
  26   14   15 1
  27   14   16 2
  28   15   37 1
  29   15   38 1
  30   15   39 1
  31   17   18 1
  32   18   20 1
  33   18   40 1
  34   18   41 1
  35   19   22 1
  36   19   21 1
  37   19   42 1
  38   19   43 1
  39   20   21 1
  40   20   44 1
  41   20   45 1
  42   21   46 1
  43   21   47 1
  44   23   24 1
  45   23   48 1
  46   23   49 1
  47   24   25 1
  48   24   50 1
  49   24   51 1
  50   25   52 1
  51   25   53 1
  52   25   54 1
  53   26   27 am
  54   26   28 2
  55   26   29 2
  56   27   55 1
  57   27   56 1

#	End of record

