#	Name: ASD02500812
#	Creating user name:	WinNT
#	Creation time:	15. 06. 2019 20:23

#	Modifying user name:	WinNT
#	Modification time:	15. 06. 2019 20:23

#	Program:	/corina/corina34_cracker 3.40 0067  02.08.2006

@<TRIPOS>MOLECULE
ASD02500812
  38   41    0    0    0
SMALL
NO_CHARGES


@<TRIPOS>ATOM
   1 C1            -0.0169     1.3954     0.0097 C.2     
   2 C2             0.0021    -0.0041     0.0020 C.2     
   3 C3            -1.2248    -0.6943     0.0100 C.2     
   4 N4            -2.3813    -0.0049     0.0248 N.am    
   5 N5            -2.4038     1.3917     0.0325 N.2     
   6 C6            -1.3013     2.0881     0.0310 C.2     
   7 C7             1.3311     1.8355    -0.0008 C.2     
   8 C8             2.1402     0.7207    -0.0145 C.2     
   9 N9             1.3176    -0.4078    -0.0127 N.pl3   
  10 S10            2.3225     3.2907    -0.0025 S.3     
  11 C11            3.7963     2.3365    -0.0216 C.2     
  12 C12            3.5034     1.0318    -0.0258 C.2     
  13 O13           -1.2402    -1.9153     0.0032 O.2     
  14 C14           -3.6492    -0.7388     0.0325 C.3     
  15 C15           -4.0706    -0.9985     1.4558 C.ar    
  16 C16           -4.6851     0.0018     2.1896 C.ar    
  17 C17           -5.0718    -0.2384     3.4974 C.ar    
  18 C18           -4.8440    -1.4758     4.0685 C.ar    
  19 C19           -4.2302    -2.4741     3.3347 C.ar    
  20 C20           -3.8489    -2.2373     2.0274 C.ar    
  21 F21           -4.9069     1.2114     1.6303 F       
  22 S22            5.4274     3.0027    -0.0342 S.3     
  23 C23            5.1370     4.7932    -0.0215 C.3     
  24 C24            1.7807    -1.7976    -0.0246 C.3     
  25 H25           -1.3383     3.1674     0.0371 H       
  26 H26            4.2683     0.2695    -0.0369 H       
  27 H27           -4.4142    -0.1476    -0.4709 H       
  28 H28           -3.5227    -1.6881    -0.4880 H       
  29 H29           -5.5509     0.5414     4.0709 H       
  30 H30           -5.1452    -1.6631     5.0886 H       
  31 H31           -4.0522    -3.4408     3.7821 H       
  32 H32           -3.3696    -3.0178     1.4551 H       
  33 H33            6.0932     5.3164    -0.0281 H       
  34 H34            4.5629     5.0744    -0.9043 H       
  35 H35            4.5805     5.0647     0.8755 H       
  36 H36            1.9057    -2.1477     1.0000 H       
  37 H37            1.0461    -2.4210    -0.5344 H       
  38 H38            2.7347    -1.8583    -0.5483 H       
@<TRIPOS>BOND
   1    1    2 2
   2    1    7 1
   3    1    6 1
   4    2    3 1
   5    2    9 1
   6    3    4 am
   7    3   13 2
   8    4    5 1
   9    4   14 1
  10    5    6 2
  11    6   25 1
  12    7    8 2
  13    7   10 1
  14    8    9 1
  15    8   12 1
  16    9   24 1
  17   10   11 1
  18   11   12 2
  19   11   22 1
  20   12   26 1
  21   14   15 1
  22   14   27 1
  23   14   28 1
  24   15   16 ar
  25   15   20 ar
  26   16   17 ar
  27   16   21 1
  28   17   18 ar
  29   17   29 1
  30   18   19 ar
  31   18   30 1
  32   19   20 ar
  33   19   31 1
  34   20   32 1
  35   22   23 1
  36   23   33 1
  37   23   34 1
  38   23   35 1
  39   24   36 1
  40   24   37 1
  41   24   38 1

#	End of record

