#	Name: ASD04170041
#	Creating user name:	WinNT
#	Creation time:	15. 06. 2019 20:48

#	Modifying user name:	WinNT
#	Modification time:	15. 06. 2019 20:48

#	Program:	/corina/corina34_cracker 3.40 0067  02.08.2006

@<TRIPOS>MOLECULE
ASD04170041
  37   39    0    0    0
SMALL
NO_CHARGES


@<TRIPOS>ATOM
   1 Cl1            0.0021    -0.0041     0.0020 Cl      
   2 C2            -0.0215     1.7317     0.0116 C.ar    
   3 C3             1.1668     2.4399     0.0040 C.ar    
   4 C4             1.1474     3.8221     0.0117 C.ar    
   5 C5            -0.0590     4.4966     0.0269 C.ar    
   6 C6            -1.2470     3.7893     0.0349 C.ar    
   7 C7            -1.2289     2.4075     0.0210 C.ar    
   8 C8            -2.5239     1.6368     0.0297 C.3     
   9 N9            -2.7783     1.0916    -1.3104 N.4     
  10 C10           -4.0406     0.3402    -1.3019 C.3     
  11 C11           -5.2050     1.2963    -1.0271 C.3     
  12 N12           -6.1393     1.2646    -2.1603 N.3     
  13 C13           -6.7131    -0.0770    -2.3341 C.3     
  14 C14           -5.5917    -1.0721    -2.6456 C.3     
  15 C15           -4.2548    -0.3204    -2.6695 C.3     
  16 C16           -4.3303     0.7784    -3.7371 C.3     
  17 C17           -5.4871     1.7216    -3.3952 C.3     
  18 H18            2.1095     1.9130    -0.0075 H       
  19 H19            2.0751     4.3751     0.0061 H       
  20 H20           -0.0736     5.5764     0.0328 H       
  21 H21           -2.1893     4.3168     0.0475 H       
  22 H22           -2.4553     0.8194     0.7475 H       
  23 H23           -3.3403     2.3013     0.3127 H       
  24 H24           -2.8418     1.8482    -1.9749 H       
  25 H25           -2.0226     0.4765    -1.5723 H       
  26 H26           -4.0051    -0.4246    -0.5261 H       
  27 H27           -5.7233     0.9866    -0.1196 H       
  28 H28           -4.8219     2.3088    -0.8999 H       
  29 H29           -7.2211    -0.3768    -1.4176 H       
  30 H30           -7.4265    -0.0634    -3.1581 H       
  31 H31           -5.5634    -1.8432    -1.8758 H       
  32 H32           -5.7702    -1.5308    -3.6182 H       
  33 H33           -3.4398    -1.0118    -2.8835 H       
  34 H34           -3.3950     1.3380    -3.7521 H       
  35 H35           -4.5036     0.3270    -4.7141 H       
  36 H36           -6.2105     1.7203    -4.2105 H       
  37 H37           -5.1026     2.7313    -3.2512 H       
@<TRIPOS>BOND
   1    1    2 1
   2    2    3 ar
   3    2    7 ar
   4    3    4 ar
   5    3   18 1
   6    4    5 ar
   7    4   19 1
   8    5    6 ar
   9    5   20 1
  10    6    7 ar
  11    6   21 1
  12    7    8 1
  13    8    9 1
  14    8   22 1
  15    8   23 1
  16    9   10 1
  17    9   24 1
  18    9   25 1
  19   10   11 1
  20   10   15 1
  21   10   26 1
  22   11   12 1
  23   11   27 1
  24   11   28 1
  25   12   13 1
  26   12   17 1
  27   13   14 1
  28   13   29 1
  29   13   30 1
  30   14   15 1
  31   14   31 1
  32   14   32 1
  33   15   16 1
  34   15   33 1
  35   16   17 1
  36   16   34 1
  37   16   35 1
  38   17   36 1
  39   17   37 1

#	End of record

