#	Name: ASD03092913
#	Creating user name:	WinNT
#	Creation time:	15. 06. 2019 20:33

#	Modifying user name:	WinNT
#	Modification time:	15. 06. 2019 20:33

#	Program:	/corina/corina34_cracker 3.40 0067  02.08.2006

@<TRIPOS>MOLECULE
ASD03092913
  50   53    0    0    0
SMALL
NO_CHARGES


@<TRIPOS>ATOM
   1 C1            -0.4984     1.4567     0.0380 C.3     
   2 C2            -0.2100    -0.0222     0.0149 C.2     
   3 C3            -0.0915    -0.8362    -1.1402 C.2     
   4 C4            -0.2253    -0.4023    -2.5300 C.2     
   5 O5            -1.3247    -0.3252    -3.0386 O.2     
   6 C6             1.0018    -0.0508    -3.3311 C.3     
   7 C7             1.0795    -0.5690    -4.7686 C.3     
   8 C8             0.8269     0.9165    -4.5035 C.3     
   9 C9             0.1785    -2.1326    -0.6945 C.2     
  10 C10            0.3811    -3.3203    -1.5455 C.ar    
  11 C11           -0.4757    -3.5672    -2.6212 C.ar    
  12 C12           -0.2810    -4.6792    -3.4138 C.ar    
  13 C13            0.7595    -5.5506    -3.1463 C.ar    
  14 C14            1.6143    -5.3131    -2.0810 C.ar    
  15 F15            2.6282    -6.1688    -1.8263 F       
  16 C16            1.4342    -4.2003    -1.2829 C.ar    
  17 S17            0.9993    -6.9689    -4.1638 S.o2    
  18 N18            2.4521    -6.7787    -4.9355 N.am    
  19 O19            1.1544    -8.0731    -3.2829 O.2     
  20 O20           -0.0008    -6.9133    -5.1718 O.2     
  21 N21            0.2212    -2.1032     0.6661 N.pl3   
  22 C22            0.4780    -3.2559     1.5330 C.3     
  23 C23           -0.0101    -0.8187     1.0960 C.2     
  24 C24           -0.0399    -0.3767     2.5066 C.ar    
  25 C25            0.6115     0.7978     2.8866 C.ar    
  26 C26            0.5798     1.2054     4.2040 C.ar    
  27 C27           -0.0964     0.4518     5.1487 C.ar    
  28 Cl28          -0.1323     0.9715     6.8047 Cl      
  29 C29           -0.7444    -0.7143     4.7777 C.ar    
  30 C30           -0.7242    -1.1292     3.4623 C.ar    
  31 H31            0.4393     2.0088     0.1018 H       
  32 H32           -1.0246     1.7386    -0.8740 H       
  33 H33           -1.1184     1.6926     0.9029 H       
  34 H34            1.9319     0.0067    -2.7656 H       
  35 H35            2.0607    -0.8527    -5.1490 H       
  36 H36            0.2430    -1.1642    -5.1348 H       
  37 H37           -0.1757     1.2987    -4.6954 H       
  38 H38            1.6421     1.6102    -4.7096 H       
  39 H39           -1.2892    -2.8887    -2.8316 H       
  40 H40           -0.9431    -4.8704    -4.2454 H       
  41 H41            2.1027    -4.0134    -0.4555 H       
  42 H42            2.9776    -7.5569    -5.1789 H       
  43 H43            2.7776    -5.8891    -5.1442 H       
  44 H44            1.5496    -3.3441     1.7122 H       
  45 H45           -0.0390    -3.1186     2.4827 H       
  46 H46            0.1146    -4.1625     1.0492 H       
  47 H47            1.1394     1.3861     2.1507 H       
  48 H48            1.0837     2.1138     4.4993 H       
  49 H49           -1.2702    -1.2979     5.5189 H       
  50 H50           -1.2338    -2.0365     3.1733 H       
@<TRIPOS>BOND
   1    1    2 1
   2    1   31 1
   3    1   32 1
   4    1   33 1
   5    2   23 2
   6    2    3 1
   7    3    4 1
   8    3    9 2
   9    4    5 2
  10    4    6 1
  11    6    8 1
  12    6    7 1
  13    6   34 1
  14    7    8 1
  15    7   35 1
  16    7   36 1
  17    8   37 1
  18    8   38 1
  19    9   10 1
  20    9   21 1
  21   10   16 ar
  22   10   11 ar
  23   11   12 ar
  24   11   39 1
  25   12   13 ar
  26   12   40 1
  27   13   14 ar
  28   13   17 1
  29   14   15 1
  30   14   16 ar
  31   16   41 1
  32   17   18 am
  33   17   19 2
  34   17   20 2
  35   18   42 1
  36   18   43 1
  37   21   22 1
  38   21   23 1
  39   22   44 1
  40   22   45 1
  41   22   46 1
  42   23   24 1
  43   24   30 ar
  44   24   25 ar
  45   25   26 ar
  46   25   47 1
  47   26   27 ar
  48   26   48 1
  49   27   28 1
  50   27   29 ar
  51   29   30 ar
  52   29   49 1
  53   30   50 1

#	End of record

