#	Name: ASD02198721
#	Creating user name:	WinNT
#	Creation time:	15. 06. 2019 20:20

#	Modifying user name:	WinNT
#	Modification time:	15. 06. 2019 20:20

#	Program:	/corina/corina34_cracker 3.40 0067  02.08.2006

@<TRIPOS>MOLECULE
ASD02198721
  60   64    0    0    0
SMALL
NO_CHARGES


@<TRIPOS>ATOM
   1 F1             2.6184    -1.4128     2.8497 F       
   2 C2             0.1510     1.4028    -0.0265 C.2     
   3 C3             0.1988     0.0894     0.3108 C.2     
   4 N4             1.3814    -0.5252     0.5381 N.pl3   
   5 N5             2.5127     0.0716     0.4533 N.2     
   6 C6             2.6093     1.3446     0.1344 C.2     
   7 C7             1.3767     2.1030    -0.1321 C.2     
   8 C8             1.3698    -1.8810     0.8836 C.ar    
   9 C9             1.9973    -2.3075     2.0503 C.ar    
  10 C10            1.9850    -3.6471     2.3902 C.ar    
  11 C11            1.3468    -4.5659     1.5676 C.ar    
  12 C12            0.7209    -4.1393     0.4027 C.ar    
  13 C13            0.7270    -2.8014     0.0652 C.ar    
  14 C14            3.9299     2.0001     0.0464 C.2     
  15 N15            4.4322     2.6731    -1.0317 N.pl3   
  16 N16            5.7094     3.1344    -0.6895 N.2     
  17 C17            5.9766     2.7627     0.5371 C.2     
  18 C18            4.8850     2.0534     1.0379 C.2     
  19 C19            3.7857     2.8664    -2.2591 C.ar    
  20 C20            3.8601     4.0969    -2.8986 C.ar    
  21 C21            3.2215     4.2843    -4.1087 C.ar    
  22 C22            2.5084     3.2484    -4.6837 C.ar    
  23 C23            2.4320     2.0220    -4.0492 C.ar    
  24 C24            3.0736     1.8264    -2.8419 C.ar    
  25 O25            1.4098     3.2871    -0.4325 O.2     
  26 N26            1.3343    -5.9224     1.9118 N.am    
  27 C27            0.6731    -6.8839     1.2541 C.2     
  28 C28            2.0500    -6.5195     3.0492 C.3     
  29 C29            1.6957    -8.0168     2.9635 C.3     
  30 N30            0.8214    -8.1050     1.7844 N.am    
  31 O31           -0.0009    -6.6678     0.2655 O.2     
  32 C32            0.2093    -9.3332     1.2715 C.3     
  33 C33           -0.6900    -9.9432     2.3485 C.3     
  34 C34           -0.6276    -9.0072     0.0328 C.3     
  35 C35            1.3063   -10.3320     0.8974 C.3     
  36 H36           -0.7912     1.8967    -0.2128 H       
  37 H37           -0.7195    -0.4721     0.3993 H       
  38 H38            2.4720    -3.9792     3.2952 H       
  39 H39            0.2251    -4.8548    -0.2365 H       
  40 H40            0.2403    -2.4709    -0.8405 H       
  41 H41            6.8898     2.9738     1.0738 H       
  42 H42            4.8056     1.6183     2.0232 H       
  43 H43            4.4166     4.9065    -2.4499 H       
  44 H44            3.2787     5.2411    -4.6064 H       
  45 H45            2.0099     3.3974    -5.6300 H       
  46 H46            1.8737     1.2151    -4.5004 H       
  47 H47            3.0135     0.8684    -2.3468 H       
  48 H48            3.1251    -6.3741     2.9436 H       
  49 H49            1.6961    -6.0957     3.9890 H       
  50 H50            2.5948    -8.6149     2.8154 H       
  51 H51            1.1658    -8.3365     3.8608 H       
  52 H52           -1.4715    -9.2317     2.6150 H       
  53 H53           -1.1454   -10.8570     1.9669 H       
  54 H54           -0.0938   -10.1755     3.2310 H       
  55 H55            0.0131    -8.5727    -0.7345 H       
  56 H56           -1.0829    -9.9211    -0.3488 H       
  57 H57           -1.4091    -8.2957     0.2993 H       
  58 H58            1.9026   -10.5642     1.7798 H       
  59 H59            0.8510   -11.2458     0.5157 H       
  60 H60            1.9470    -9.8974     0.1301 H       
@<TRIPOS>BOND
   1    1    9 1
   2    2    3 2
   3    2    7 1
   4    2   36 1
   5    3    4 1
   6    3   37 1
   7    4    5 1
   8    4    8 1
   9    5    6 2
  10    6    7 1
  11    6   14 1
  12    7   25 2
  13    8    9 ar
  14    8   13 ar
  15    9   10 ar
  16   10   11 ar
  17   10   38 1
  18   11   12 ar
  19   11   26 1
  20   12   13 ar
  21   12   39 1
  22   13   40 1
  23   14   15 1
  24   14   18 2
  25   15   16 1
  26   15   19 1
  27   16   17 2
  28   17   18 1
  29   17   41 1
  30   18   42 1
  31   19   20 ar
  32   19   24 ar
  33   20   21 ar
  34   20   43 1
  35   21   22 ar
  36   21   44 1
  37   22   23 ar
  38   22   45 1
  39   23   24 ar
  40   23   46 1
  41   24   47 1
  42   26   28 1
  43   26   27 am
  44   27   31 2
  45   27   30 am
  46   28   29 1
  47   28   48 1
  48   28   49 1
  49   29   30 1
  50   29   50 1
  51   29   51 1
  52   30   32 1
  53   32   33 1
  54   32   34 1
  55   32   35 1
  56   33   52 1
  57   33   53 1
  58   33   54 1
  59   34   55 1
  60   34   56 1
  61   34   57 1
  62   35   58 1
  63   35   59 1
  64   35   60 1

#	End of record

