#	Name: ASD01912792
#	Creating user name:	WinNT
#	Creation time:	15. 06. 2019 20:00

#	Modifying user name:	WinNT
#	Modification time:	15. 06. 2019 20:00

#	Program:	/corina/corina34_cracker 3.40 0067  02.08.2006

@<TRIPOS>MOLECULE
ASD01912792
  30   31    0    0    0
SMALL
NO_CHARGES


@<TRIPOS>ATOM
   1 C1            -0.0169     1.3955     0.0097 C.ar    
   2 C2             0.0021    -0.0041     0.0020 C.ar    
   3 C3            -1.2612    -0.7594     0.0096 C.2     
   4 C4            -2.5776    -0.0261     0.0256 C.3     
   5 O5            -1.2426    -1.9718     0.0029 O.2     
   6 C6            -3.7079    -1.0228     0.0307 C.2     
   7 C7            -5.1026    -0.5536     0.0460 C.ar    
   8 O8            -3.4681    -2.2114     0.0221 O.2     
   9 C9            -6.1543    -1.4754     0.0508 C.ar    
  10 C10           -7.4585    -1.0279     0.0657 C.ar    
  11 C11           -7.7280     0.3296     0.0755 C.ar    
  12 C12           -6.6927     1.2482     0.0704 C.ar    
  13 C13           -5.3832     0.8164     0.0618 C.ar    
  14 C14            1.2225    -0.6812    -0.0133 C.ar    
  15 C15            2.4129     0.0428    -0.0208 C.ar    
  16 C16            2.3778     1.4398    -0.0130 C.ar    
  17 C17            1.1669     2.1043     0.0022 C.ar    
  18 C18            3.6698    -0.6433    -0.0361 C.1     
  19 N19            4.6668    -1.1876    -0.0482 N.1     
  20 H20           -0.9600     1.9217     0.0170 H       
  21 H21           -2.6367     0.5949     0.9196 H       
  22 H22           -2.6531     0.6044    -0.8603 H       
  23 H23           -5.9456    -2.5350     0.0424 H       
  24 H24           -8.2717    -1.7385     0.0693 H       
  25 H25           -8.7516     0.6740     0.0868 H       
  26 H26           -6.9111     2.3059     0.0774 H       
  27 H27           -4.5764     1.5344     0.0579 H       
  28 H28            1.2439    -1.7610    -0.0190 H       
  29 H29            3.3002     2.0016    -0.0185 H       
  30 H30            1.1467     3.1841     0.0079 H       
@<TRIPOS>BOND
   1    1    2 ar
   2    1   17 ar
   3    1   20 1
   4    2    3 1
   5    2   14 ar
   6    3    4 1
   7    3    5 2
   8    4    6 1
   9    4   21 1
  10    4   22 1
  11    6    7 1
  12    6    8 2
  13    7    9 ar
  14    7   13 ar
  15    9   10 ar
  16    9   23 1
  17   10   11 ar
  18   10   24 1
  19   11   12 ar
  20   11   25 1
  21   12   13 ar
  22   12   26 1
  23   13   27 1
  24   14   15 ar
  25   14   28 1
  26   15   16 ar
  27   15   18 1
  28   16   17 ar
  29   16   29 1
  30   17   30 1
  31   18   19 3

#	End of record

