#	Name: ASD02408128
#	Creating user name:	WinNT
#	Creation time:	15. 06. 2019 20:21

#	Modifying user name:	WinNT
#	Modification time:	15. 06. 2019 20:21

#	Program:	/corina/corina34_cracker 3.40 0067  02.08.2006

@<TRIPOS>MOLECULE
ASD02408128
  62   64    0    0    0
SMALL
NO_CHARGES


@<TRIPOS>ATOM
   1 C1             0.4151     1.4254    -0.0628 C.ar    
   2 C2             0.4617     0.0400    -0.2024 C.ar    
   3 C3             1.5560     2.1192     0.3363 C.ar    
   4 C4             2.7248     1.4314     0.5910 C.ar    
   5 C5             2.7655     0.0557     0.4507 C.ar    
   6 C6             1.6363    -0.6379     0.0550 C.ar    
   7 C7             1.5134     3.6179     0.4891 C.3     
   8 C8             1.0654     3.9681     1.8847 C.2     
   9 N9             0.9605     5.2664     2.2283 N.am    
  10 N10            0.7869     3.0033     2.7187 N.2     
  11 C11            0.3840     3.2547     3.9708 C.2     
  12 C12            0.2579     4.5871     4.3975 C.2     
  13 C13            0.5618     5.6160     3.4694 C.2     
  14 N14            0.0968     2.2212     4.8283 N.pl3   
  15 C15            0.3572     2.2110     6.2793 C.3     
  16 O16            0.4693     6.7892     3.7870 O.2     
  17 C17           -0.8429     2.1602    -0.3439 C.ar    
  18 C18           -0.8674     3.1879    -1.2924 C.ar    
  19 C19           -2.0624     3.8435    -1.5199 C.ar    
  20 C20           -3.1919     3.4635    -0.8049 C.ar    
  21 N21           -3.1353     2.4868     0.0859 N.ar    
  22 C22           -2.0172     1.8327     0.3284 C.ar    
  23 O23           -4.3682     4.1030    -1.0228 O.3     
  24 C24           -5.4944     3.6684    -0.2580 C.3     
  25 C25            0.4563     0.7112     6.6539 C.3     
  26 C26           -0.6254     0.0879     5.7326 C.3     
  27 C27           -0.5270     0.9441     4.4523 C.3     
  28 C28           -1.9252     1.1882     3.8809 C.3     
  29 O29           -2.7655     1.7391     4.8969 O.3     
  30 C30           -0.1701     4.8975     5.7283 C.1     
  31 N31           -0.5095     5.1438     6.7841 N.1     
  32 H32           -0.4196    -0.5027    -0.5111 H       
  33 H33            3.6097     1.9681     0.9000 H       
  34 H34            3.6825    -0.4786     0.6507 H       
  35 H35            1.6736    -1.7118    -0.0529 H       
  36 H36            2.5071     4.0295     0.3124 H       
  37 H37            0.8128     4.0369    -0.2333 H       
  38 H38            1.1732     5.9549     1.5791 H       
  39 H39            1.2956     2.7199     6.4999 H       
  40 H40           -0.4662     2.6824     6.8158 H       
  41 H41            0.0260     3.4627    -1.8335 H       
  42 H42           -2.1179     4.6421    -2.2448 H       
  43 H43           -2.0096     1.0410     1.0630 H       
  44 H44           -5.6901     2.6163    -0.4653 H       
  45 H45           -5.2837     3.7964     0.8038 H       
  46 H46           -6.3682     4.2608    -0.5291 H       
  47 H47            1.4443     0.3145     6.4202 H       
  48 H48            0.2124     0.5539     7.7046 H       
  49 H49           -0.3957    -0.9561     5.5197 H       
  50 H50           -1.6146     0.1826     6.1804 H       
  51 H51            0.0941     0.4369     3.7140 H       
  52 H52           -1.8597     1.8857     3.0458 H       
  53 H53           -2.3457     0.2444     3.5338 H       
  54 H54           -3.6694     1.9199     4.6046 H       
  55 C55            9.6844    13.6963    13.6098 C.3     
  56 C56            9.7051    12.1665    13.6014 C.3     
  57 H57           10.7070    14.0736    13.6020 H       
  58 H58            9.1572    14.0574    12.7267 H       
  59 H59            9.1742    14.0478    14.5066 H       
  60 H60           10.2323    11.8054    14.4844 H       
  61 H61            8.6825    11.7892    13.6091 H       
  62 H62           10.2153    11.8150    12.7046 H       
@<TRIPOS>BOND
   1    1    2 ar
   2    1    3 ar
   3    1   17 1
   4    2    6 ar
   5    2   32 1
   6    3    4 ar
   7    3    7 1
   8    4    5 ar
   9    4   33 1
  10    5    6 ar
  11    5   34 1
  12    6   35 1
  13    7    8 1
  14    7   36 1
  15    7   37 1
  16    8    9 1
  17    8   10 2
  18    9   13 am
  19    9   38 1
  20   10   11 1
  21   11   12 2
  22   11   14 1
  23   12   13 1
  24   12   30 1
  25   13   16 2
  26   14   15 1
  27   14   27 1
  28   15   25 1
  29   15   39 1
  30   15   40 1
  31   17   18 ar
  32   17   22 ar
  33   18   19 ar
  34   18   41 1
  35   19   20 ar
  36   19   42 1
  37   20   21 ar
  38   20   23 1
  39   21   22 ar
  40   22   43 1
  41   23   24 1
  42   24   44 1
  43   24   45 1
  44   24   46 1
  45   25   26 1
  46   25   47 1
  47   25   48 1
  48   26   27 1
  49   26   49 1
  50   26   50 1
  51   27   28 1
  52   27   51 1
  53   28   29 1
  54   28   52 1
  55   28   53 1
  56   29   54 1
  57   30   31 3
  58   55   56 1
  59   55   57 1
  60   55   58 1
  61   55   59 1
  62   56   60 1
  63   56   61 1
  64   56   62 1

#	End of record

