#	Name: ASD01914918
#	Creating user name:	WinNT
#	Creation time:	15. 06. 2019 20:04

#	Modifying user name:	WinNT
#	Modification time:	15. 06. 2019 20:04

#	Program:	/corina/corina34_cracker 3.40 0067  02.08.2006

@<TRIPOS>MOLECULE
ASD01914918
  57   61    0    0    0
SMALL
NO_CHARGES


@<TRIPOS>ATOM
   1 C1             0.0134     1.9586     0.7081 C.2     
   2 N2            -0.0754     0.6675     0.9505 N.2     
   3 C3             1.2905     2.2227     0.1855 C.2     
   4 C4             1.9676     1.0402     0.1225 C.2     
   5 N5             1.1374     0.0656     0.5923 N.pl3   
   6 C6            -1.0551     2.9623     0.9412 C.ar    
   7 C7            -2.2851     2.5659     1.4617 C.ar    
   8 C8            -3.2751     3.5033     1.6764 C.ar    
   9 C9            -3.0481     4.8341     1.3752 C.ar    
  10 C10           -1.8288     5.2331     0.8582 C.ar    
  11 C11           -0.8296     4.3049     0.6454 C.ar    
  12 C12            3.3513     0.8496    -0.3665 C.ar    
  13 C13            3.9180     1.7749    -1.2432 C.ar    
  14 C14            5.2085     1.5916    -1.6956 C.ar    
  15 C15            5.9402     0.4929    -1.2817 C.ar    
  16 C16            5.3837    -0.4286    -0.4128 C.ar    
  17 C17            4.0962    -0.2532     0.0517 C.ar    
  18 C18            1.4579    -1.3596     0.7031 C.3     
  19 C19            1.9658    -1.6539     2.0910 C.2     
  20 N20            2.3246    -2.9093     2.4253 N.am    
  21 O21            2.0517    -0.7610     2.9073 O.2     
  22 C22            2.8248    -3.2302     3.7727 C.3     
  23 C23            1.8654    -4.2365     4.4110 C.3     
  24 N24            1.5487    -5.3106     3.4797 N.am    
  25 C25            1.6638    -5.2217     2.1539 C.2     
  26 C26            2.2268    -4.0153     1.4612 C.3     
  27 C27            1.0910    -6.5205     4.0133 C.ar    
  28 C28           -0.1557    -6.5854     4.6207 C.ar    
  29 C29            1.8807    -7.6602     3.9313 C.ar    
  30 C30            1.4265    -8.8531     4.4583 C.ar    
  31 C31            0.1864    -8.9143     5.0670 C.ar    
  32 C32           -0.6050    -7.7822     5.1463 C.ar    
  33 O33            1.2936    -6.1576     1.4770 O.2     
  34 Br34          -2.2999    -7.8708     5.9803 Br      
  35 H35            1.6686     3.1893    -0.1134 H       
  36 H36           -2.4636     1.5270     1.6966 H       
  37 H37           -4.2290     3.1972     2.0799 H       
  38 H38           -3.8257     5.5642     1.5441 H       
  39 H39           -1.6567     6.2734     0.6248 H       
  40 H40            0.1222     4.6175     0.2420 H       
  41 H41            3.3477     2.6329    -1.5673 H       
  42 H42            5.6483     2.3071    -2.3746 H       
  43 H43            6.9500     0.3538    -1.6386 H       
  44 H44            5.9596    -1.2847    -0.0938 H       
  45 H45            3.6629    -0.9731     0.7302 H       
  46 H46            0.5615    -1.9495     0.5116 H       
  47 H47            2.2252    -1.6173    -0.0269 H       
  48 H48            3.8211    -3.6664     3.7009 H       
  49 H49            2.8622    -2.3236     4.3767 H       
  50 H50            2.3297    -4.6595     5.3019 H       
  51 H51            0.9458    -3.7251     4.6950 H       
  52 H52            1.5726    -3.7286     0.6378 H       
  53 H53            3.2206    -4.2455     1.0770 H       
  54 H54           -0.7736    -5.7018     4.6826 H       
  55 H55            2.8491    -7.6135     3.4554 H       
  56 H56            2.0404    -9.7393     4.3946 H       
  57 H57           -0.1668    -9.8486     5.4778 H       
@<TRIPOS>BOND
   1    1    2 2
   2    1    3 1
   3    1    6 1
   4    2    5 1
   5    3    4 2
   6    3   35 1
   7    4    5 1
   8    4   12 1
   9    5   18 1
  10    6    7 ar
  11    6   11 ar
  12    7    8 ar
  13    7   36 1
  14    8    9 ar
  15    8   37 1
  16    9   10 ar
  17    9   38 1
  18   10   11 ar
  19   10   39 1
  20   11   40 1
  21   12   13 ar
  22   12   17 ar
  23   13   14 ar
  24   13   41 1
  25   14   15 ar
  26   14   42 1
  27   15   16 ar
  28   15   43 1
  29   16   17 ar
  30   16   44 1
  31   17   45 1
  32   18   19 1
  33   18   46 1
  34   18   47 1
  35   19   20 am
  36   19   21 2
  37   20   22 1
  38   20   26 1
  39   22   23 1
  40   22   48 1
  41   22   49 1
  42   23   24 1
  43   23   50 1
  44   23   51 1
  45   24   25 am
  46   24   27 1
  47   25   26 1
  48   25   33 2
  49   26   52 1
  50   26   53 1
  51   27   28 ar
  52   27   29 ar
  53   28   32 ar
  54   28   54 1
  55   29   30 ar
  56   29   55 1
  57   30   31 ar
  58   30   56 1
  59   31   32 ar
  60   31   57 1
  61   32   34 1

#	End of record

