#	Name: ASD01200161
#	Creating user name:	WinNT
#	Creation time:	15. 06. 2019 19:08

#	Modifying user name:	WinNT
#	Modification time:	15. 06. 2019 19:08

#	Program:	/corina/corina34_cracker 3.40 0067  02.08.2006

@<TRIPOS>MOLECULE
ASD01200161
  50   53    0    0    0
SMALL
NO_CHARGES


@<TRIPOS>ATOM
   1 C1             0.0951     1.6113     0.1192 C.ar    
   2 C2             0.0286     0.2296     0.1326 C.ar    
   3 C3             1.1898    -0.5241     0.0846 C.ar    
   4 C4             2.4128     0.1019     0.0235 C.ar    
   5 C5             2.4915     1.4968     0.0094 C.ar    
   6 C6             3.8317    -0.4059    -0.0378 C.3     
   7 N7             4.6914     0.7822    -0.0862 N.am    
   8 C8             3.9149     1.8791    -0.0588 C.2     
   9 O9             4.3266     3.0225    -0.0863 O.2     
  10 O10            4.1273    -1.1788     1.1272 O.3     
  11 C11            6.1549     0.7742    -0.1528 C.3     
  12 C12            6.5916     0.6366    -1.5885 C.ar    
  13 C13            3.9176    -0.4809     2.3564 C.3     
  14 C14            4.1424    -1.4211     3.5125 C.2     
  15 O15            4.4518    -2.5751     3.3044 O.2     
  16 N16            3.9997    -0.9794     4.7778 N.am    
  17 C17            4.3101    -1.8174     5.8478 C.ar    
  18 N18            4.8493    -3.0037     5.6165 N.ar    
  19 C19            5.1586    -3.8269     6.6001 C.ar    
  20 C20            4.9285    -3.4763     7.9156 C.ar    
  21 C21            4.3642    -2.2403     8.2009 C.ar    
  22 C22            4.0557    -1.3968     7.1484 C.ar    
  23 C23            6.7933     1.7651    -2.3609 C.ar    
  24 C24            7.1938     1.6389    -3.6779 C.ar    
  25 C25            7.3933     0.3840    -4.2224 C.ar    
  26 C26            7.1925    -0.7446    -3.4497 C.ar    
  27 C27            6.7961    -0.6181    -2.1315 C.ar    
  28 C28            1.3170     2.2494     0.0579 C.ar    
  29 C29           -1.3109    -0.4576     0.2002 C.3     
  30 H30           -0.8140     2.1934     0.1523 H       
  31 H31            1.1348    -1.6026     0.0956 H       
  32 H32            3.9753    -1.0089    -0.9344 H       
  33 H33            6.5423     1.7070     0.2570 H       
  34 H34            6.5404    -0.0649     0.4263 H       
  35 H35            4.6165     0.3527     2.4248 H       
  36 H36            2.8960    -0.1022     2.3894 H       
  37 H37            3.6809    -0.0784     4.9440 H       
  38 H38            5.5971    -4.7875     6.3732 H       
  39 H39            5.1846    -4.1567     8.7143 H       
  40 H40            4.1742    -1.9423     9.2214 H       
  41 H41            3.6160    -0.4280     7.3342 H       
  42 H42            6.6375     2.7455    -1.9355 H       
  43 H43            7.3507     2.5206    -4.2815 H       
  44 H44            7.7055     0.2853    -5.2515 H       
  45 H45            7.3480    -1.7250    -3.8752 H       
  46 H46            6.6393    -1.4998    -1.5278 H       
  47 H47            1.3645     3.3283     0.0473 H       
  48 H48           -1.6817    -0.6309    -0.8101 H       
  49 H49           -1.2043    -1.4114     0.7167 H       
  50 H50           -2.0156     0.1727     0.7427 H       
@<TRIPOS>BOND
   1    1    2 ar
   2    1   28 ar
   3    1   30 1
   4    2    3 ar
   5    2   29 1
   6    3    4 ar
   7    3   31 1
   8    4    5 ar
   9    4    6 1
  10    5   28 ar
  11    5    8 1
  12    6    7 1
  13    6   10 1
  14    6   32 1
  15    7    8 am
  16    7   11 1
  17    8    9 2
  18   10   13 1
  19   11   12 1
  20   11   33 1
  21   11   34 1
  22   12   23 ar
  23   12   27 ar
  24   13   14 1
  25   13   35 1
  26   13   36 1
  27   14   15 2
  28   14   16 am
  29   16   17 1
  30   16   37 1
  31   17   18 ar
  32   17   22 ar
  33   18   19 ar
  34   19   20 ar
  35   19   38 1
  36   20   21 ar
  37   20   39 1
  38   21   22 ar
  39   21   40 1
  40   22   41 1
  41   23   24 ar
  42   23   42 1
  43   24   25 ar
  44   24   43 1
  45   25   26 ar
  46   25   44 1
  47   26   27 ar
  48   26   45 1
  49   27   46 1
  50   28   47 1
  51   29   48 1
  52   29   49 1
  53   29   50 1

#	End of record

