#	Name: ASD09116378
#	Creating user name:	WinNT
#	Creation time:	15. 06. 2019 21:21

#	Modifying user name:	WinNT
#	Modification time:	15. 06. 2019 21:21

#	Program:	/corina/corina34_cracker 3.40 0067  02.08.2006

@<TRIPOS>MOLECULE
ASD09116378
  77   83    0    0    0
SMALL
NO_CHARGES


@<TRIPOS>ATOM
   1 N1             0.2132     0.4067    -0.5010 N.2     
   2 N2             0.3570    -0.8808    -1.0425 N.pl3   
   3 C3             1.4076     0.9480    -0.4781 C.2     
   4 N4             2.2918     0.0744    -0.9739 N.2     
   5 C5             1.6732    -1.0344    -1.3191 C.2     
   6 N6             2.2631    -2.1575    -1.8673 N.pl3   
   7 C7            -0.6567    -1.8174    -1.2532 C.ar    
   8 N8             1.7078     2.2283    -0.0124 N.pl3   
   9 C9             3.0376     2.6513     0.0604 C.ar    
  10 C10            3.3505     3.9952    -0.1007 C.ar    
  11 C11            4.0492     1.7296     0.2996 C.ar    
  12 C12            5.3623     2.1512     0.3714 C.ar    
  13 C13            5.6708     3.4890     0.2054 C.ar    
  14 C14            4.6658     4.4098    -0.0277 C.ar    
  15 N15           -0.5126    -2.7520    -2.1808 N.ar    
  16 N16           -1.4191    -3.6311    -2.4213 N.ar    
  17 C17           -2.5598    -3.6529    -1.7507 C.ar    
  18 C18           -2.7913    -2.7178    -0.7378 C.ar    
  19 C19           -1.8207    -1.7725    -0.4816 C.ar    
  20 C20           -3.6281    -4.6305    -2.0624 C.ar    
  21 C21           -4.9331    -4.1692    -2.2423 C.ar    
  22 C22           -5.2100    -2.6925    -2.1709 C.3     
  23 C23           -5.2297    -2.1989    -0.7268 C.3     
  24 C24           -4.0605    -2.7840     0.0608 C.3     
  25 C25           -3.3487    -5.9882    -2.1723 C.ar    
  26 C26           -4.3715    -6.8771    -2.4412 C.ar    
  27 C27           -5.6668    -6.4183    -2.5982 C.ar    
  28 C28           -5.9476    -5.0666    -2.4979 C.ar    
  29 C29            7.1049     3.9453     0.2850 C.3     
  30 N30            7.7105     3.8922    -1.0524 N.3     
  31 C31            9.0242     4.5483    -1.0615 C.3     
  32 C32            9.5587     4.6028    -2.4945 C.3     
  33 C33            9.6746     3.1788    -3.0453 C.3     
  34 C34            8.3030     2.5013    -2.9798 C.3     
  35 C35            7.8050     2.5078    -1.5327 C.3     
  36 N36           10.1317     3.2278    -4.4405 N.3     
  37 C37           11.4775     3.8229    -4.5351 C.3     
  38 C38           10.1731     1.8737    -5.0324 C.3     
  39 C39           11.3714     1.9073    -6.0136 C.3     
  40 C40           12.3842     2.7930    -5.2412 C.3     
  41 H41            3.2192    -2.1728    -2.0299 H       
  42 H42            1.7209    -2.9306    -2.0895 H       
  43 H43            0.9935     2.8249     0.2608 H       
  44 H44            2.5662     4.7148    -0.2831 H       
  45 H45            3.8090     0.6848     0.4297 H       
  46 H46            6.1492     1.4353     0.5578 H       
  47 H47            4.9102     5.4539    -0.1568 H       
  48 H48           -1.9585    -1.0205     0.2812 H       
  49 H49           -4.4353    -2.1575    -2.7201 H       
  50 H50           -6.1770    -2.4885    -2.6307 H       
  51 H51           -5.1595    -1.1112    -0.7184 H       
  52 H52           -6.1658    -2.5010    -0.2570 H       
  53 H53           -4.2770    -3.8242     0.3042 H       
  54 H54           -3.9325    -2.2198     0.9846 H       
  55 H55           -2.3373    -6.3460    -2.0485 H       
  56 H56           -4.1592    -7.9323    -2.5294 H       
  57 H57           -6.4638    -7.1187    -2.7998 H       
  58 H58           -6.9614    -4.7150    -2.6207 H       
  59 H59            7.1404     4.9683     0.6596 H       
  60 H60            7.6572     3.2917     0.9601 H       
  61 H61            8.9270     5.5614    -0.6714 H       
  62 H62            9.7165     3.9837    -0.4370 H       
  63 H63            8.8738     5.1790    -3.1167 H       
  64 H64           10.5407     5.0758    -2.4989 H       
  65 H65           10.3890     2.6137    -2.4466 H       
  66 H66            7.5984     3.0445    -3.6095 H       
  67 H67            8.3879     1.4729    -3.3308 H       
  68 H68            8.5030     1.9527    -0.9059 H       
  69 H69            6.8222     2.0388    -1.4848 H       
  70 H70           11.4362     4.7424    -5.1189 H       
  71 H71           11.8614     4.0319    -3.5366 H       
  72 H72           10.3384     1.1256    -4.2571 H       
  73 H73            9.2480     1.6661    -5.5702 H       
  74 H74           11.7718     0.9065    -6.1753 H       
  75 H75           11.0890     2.3706    -6.9590 H       
  76 H76           13.0666     3.2893    -5.9312 H       
  77 H77           12.9358     2.2006    -4.5112 H       
@<TRIPOS>BOND
   1    1    2 1
   2    1    3 2
   3    2    7 1
   4    2    5 1
   5    3    4 1
   6    3    8 1
   7    4    5 2
   8    5    6 1
   9    6   41 1
  10    6   42 1
  11    7   15 ar
  12    7   19 ar
  13    8    9 1
  14    8   43 1
  15    9   10 ar
  16    9   11 ar
  17   10   14 ar
  18   10   44 1
  19   11   12 ar
  20   11   45 1
  21   12   13 ar
  22   12   46 1
  23   13   14 ar
  24   13   29 1
  25   14   47 1
  26   15   16 ar
  27   16   17 ar
  28   17   18 ar
  29   17   20 1
  30   18   19 ar
  31   18   24 1
  32   19   48 1
  33   20   21 ar
  34   20   25 ar
  35   21   22 1
  36   21   28 ar
  37   22   23 1
  38   22   49 1
  39   22   50 1
  40   23   24 1
  41   23   51 1
  42   23   52 1
  43   24   53 1
  44   24   54 1
  45   25   26 ar
  46   25   55 1
  47   26   27 ar
  48   26   56 1
  49   27   28 ar
  50   27   57 1
  51   28   58 1
  52   29   30 1
  53   29   59 1
  54   29   60 1
  55   30   31 1
  56   30   35 1
  57   31   32 1
  58   31   61 1
  59   31   62 1
  60   32   33 1
  61   32   63 1
  62   32   64 1
  63   33   34 1
  64   33   36 1
  65   33   65 1
  66   34   35 1
  67   34   66 1
  68   34   67 1
  69   35   68 1
  70   35   69 1
  71   36   37 1
  72   36   38 1
  73   37   40 1
  74   37   70 1
  75   37   71 1
  76   38   39 1
  77   38   72 1
  78   38   73 1
  79   39   40 1
  80   39   74 1
  81   39   75 1
  82   40   76 1
  83   40   77 1

#	End of record

