#	Name: ASD01910710
#	Creating user name:	WinNT
#	Creation time:	15. 06. 2019 19:56

#	Modifying user name:	WinNT
#	Modification time:	15. 06. 2019 19:56

#	Program:	/corina/corina34_cracker 3.40 0067  02.08.2006

@<TRIPOS>MOLECULE
ASD01910710
  55   58    0    0    0
SMALL
NO_CHARGES


@<TRIPOS>ATOM
   1 C1            12.4927    -1.8927     4.2629 C.ar    
   2 C2            13.1107    -2.0558     3.0304 C.ar    
   3 C3            12.3987    -1.7382     1.8876 C.ar    
   4 C4            11.0952    -1.2689     2.0113 C.ar    
   5 N5            10.5406    -1.1265     3.2054 N.ar    
   6 C6            11.1956    -1.4220     4.3120 C.ar    
   7 N7            10.3682    -0.9459     0.8714 N.3     
   8 C8             9.0224    -0.4727     1.2217 C.3     
   9 C9             8.3209     0.0417    -0.0399 C.3     
  10 N10            8.3620    -1.0157    -1.0613 N.am    
  11 C11            9.6595    -1.6362    -1.3688 C.3     
  12 C12           10.3083    -2.0845    -0.0549 C.3     
  13 C13            7.2404    -1.4055    -1.6989 C.2     
  14 C14            7.3212    -2.3800    -2.8082 C.ar    
  15 O15            6.1624    -0.9560    -1.3622 O.2     
  16 C16            6.3483    -3.3735    -2.9390 C.ar    
  17 C17            6.4218    -4.2853    -3.9739 C.ar    
  18 C18            7.4554    -4.2219    -4.8862 C.ar    
  19 C19            8.4364    -3.2323    -4.7679 C.ar    
  20 C20            8.3647    -2.3055    -3.7281 C.ar    
  21 C21            9.5088    -3.1676    -5.7147 C.1     
  22 C22           10.3880    -3.1145    -6.4909 C.1     
  23 C23           11.4604    -3.0498    -7.4377 C.ar    
  24 C24            7.5274    -5.2214    -6.0117 C.3     
  25 C25           12.4411    -2.0614    -7.3203 C.ar    
  26 C26           13.4712    -2.0042    -8.2352 C.ar    
  27 C27           13.5349    -2.9243    -9.2697 C.ar    
  28 C28           12.5650    -3.9073    -9.3914 C.ar    
  29 C29           11.5336    -3.9787    -8.4795 C.ar    
  30 F30           14.5462    -2.8627   -10.1634 F       
  31 C31           14.5297    -0.9389    -8.1102 C.3     
  32 H32           13.0196    -2.1359     5.1738 H       
  33 H33           14.1246    -2.4221     2.9653 H       
  34 H34           12.8489    -1.8527     0.9126 H       
  35 H35           10.7112    -1.2933     5.2687 H       
  36 H36            8.4473    -1.2946     1.6482 H       
  37 H37            9.0989     0.3346     1.9501 H       
  38 H38            7.2844     0.2870     0.1917 H       
  39 H39            8.8361     0.9282    -0.4097 H       
  40 H40            9.5081    -2.5002    -2.0159 H       
  41 H41           10.3034    -0.9110    -1.8664 H       
  42 H42           11.3174    -2.4462    -0.2524 H       
  43 H43            9.7154    -2.8840     0.3893 H       
  44 H44            5.5366    -3.4292    -2.2288 H       
  45 H45            5.6669    -5.0517    -4.0694 H       
  46 H46            9.1193    -1.5389    -3.6315 H       
  47 H47            6.9842    -4.8365    -6.8748 H       
  48 H48            8.5698    -5.3883    -6.2834 H       
  49 H49            7.0804    -6.1624    -5.6912 H       
  50 H50           12.3921    -1.3434    -6.5150 H       
  51 H51           12.6198    -4.6213   -10.1999 H       
  52 H52           10.7788    -4.7451    -8.5752 H       
  53 H53           15.3452    -1.3081    -7.4882 H       
  54 H54           14.9121    -0.6887    -9.0998 H       
  55 H55           14.0975    -0.0492    -7.6521 H       
@<TRIPOS>BOND
   1    1    2 ar
   2    1    6 ar
   3    1   32 1
   4    2    3 ar
   5    2   33 1
   6    3    4 ar
   7    3   34 1
   8    4    5 ar
   9    4    7 1
  10    5    6 ar
  11    6   35 1
  12    7    8 1
  13    7   12 1
  14    8    9 1
  15    8   36 1
  16    8   37 1
  17    9   10 1
  18    9   38 1
  19    9   39 1
  20   10   11 1
  21   10   13 am
  22   11   12 1
  23   11   40 1
  24   11   41 1
  25   12   42 1
  26   12   43 1
  27   13   14 1
  28   13   15 2
  29   14   16 ar
  30   14   20 ar
  31   16   17 ar
  32   16   44 1
  33   17   18 ar
  34   17   45 1
  35   18   19 ar
  36   18   24 1
  37   19   20 ar
  38   19   21 1
  39   20   46 1
  40   21   22 3
  41   22   23 1
  42   23   25 ar
  43   23   29 ar
  44   24   47 1
  45   24   48 1
  46   24   49 1
  47   25   26 ar
  48   25   50 1
  49   26   27 ar
  50   26   31 1
  51   27   28 ar
  52   27   30 1
  53   28   29 ar
  54   28   51 1
  55   29   52 1
  56   31   53 1
  57   31   54 1
  58   31   55 1

#	End of record

