#	Name: ASD01913311
#	Creating user name:	WinNT
#	Creation time:	15. 06. 2019 20:01

#	Modifying user name:	WinNT
#	Modification time:	15. 06. 2019 20:01

#	Program:	/corina/corina34_cracker 3.40 0067  02.08.2006

@<TRIPOS>MOLECULE
ASD01913311
  41   43    0    0    0
SMALL
NO_CHARGES


@<TRIPOS>ATOM
   1 C1            -0.0169     1.3915     0.0097 C.ar    
   2 C2             0.0021    -0.0041     0.0020 C.ar    
   3 C3             1.2385    -0.6674    -0.0134 C.ar    
   4 C4             2.3914     0.0946    -0.0204 C.ar    
   5 C5             2.2887     1.4838    -0.0119 C.ar    
   6 N6             1.1075     2.0786     0.0026 N.ar    
   7 O7             3.4169     2.2376    -0.0187 O.3     
   8 C8            -1.2217    -0.7477     0.0102 C.1     
   9 C9            -2.2250    -1.3573     0.0170 C.1     
  10 C10           -3.4487    -2.1009     0.0252 C.ar    
  11 C11           -3.4214    -3.4980     0.0174 C.ar    
  12 C12           -4.6041    -4.2075     0.0259 C.ar    
  13 C13           -5.8157    -3.5392     0.0420 C.ar    
  14 C14           -5.8506    -2.1558     0.0498 C.ar    
  15 C15           -4.6760    -1.4330     0.0468 C.ar    
  16 C16            3.2490     3.6567    -0.0095 C.3     
  17 F17            3.6040    -0.5009    -0.0347 F       
  18 C18            4.4365     4.3061     0.7039 C.3     
  19 C19            4.2568     5.8255     0.7138 C.3     
  20 C20            4.1830     6.3397    -0.7253 C.3     
  21 C21            2.9955     5.6903    -1.4387 C.3     
  22 C22            3.1753     4.1709    -1.4486 C.3     
  23 O23            4.0152     7.7587    -0.7161 O.3     
  24 H24           -0.9624     1.9133     0.0170 H       
  25 H25            1.2880    -1.7462    -0.0193 H       
  26 H26           -2.4765    -4.0209     0.0044 H       
  27 H27           -4.5846    -5.2873     0.0195 H       
  28 H28           -6.7387    -4.1000     0.0482 H       
  29 H29           -6.7999    -1.6410     0.0624 H       
  30 H30           -4.7047    -0.3534     0.0532 H       
  31 H31            2.3275     3.9101     0.5146 H       
  32 H32            4.4891     3.9398     1.7292 H       
  33 H33            5.3581     4.0527     0.1799 H       
  34 H34            3.3353     6.0789     1.2379 H       
  35 H35            5.1028     6.2881     1.2221 H       
  36 H36            5.1046     6.0862    -1.2494 H       
  37 H37            2.0740     5.9437    -0.9146 H       
  38 H38            2.9430     6.0566    -2.4639 H       
  39 H39            4.0968     3.9174    -1.9726 H       
  40 H40            2.3293     3.7082    -1.9568 H       
  41 H41            3.9605     8.1541    -1.5969 H       
@<TRIPOS>BOND
   1    1    2 ar
   2    1    6 ar
   3    1   24 1
   4    2    3 ar
   5    2    8 1
   6    3    4 ar
   7    3   25 1
   8    4    5 ar
   9    4   17 1
  10    5    6 ar
  11    5    7 1
  12    7   16 1
  13    8    9 3
  14    9   10 1
  15   10   11 ar
  16   10   15 ar
  17   11   12 ar
  18   11   26 1
  19   12   13 ar
  20   12   27 1
  21   13   14 ar
  22   13   28 1
  23   14   15 ar
  24   14   29 1
  25   15   30 1
  26   16   18 1
  27   16   22 1
  28   16   31 1
  29   18   19 1
  30   18   32 1
  31   18   33 1
  32   19   20 1
  33   19   34 1
  34   19   35 1
  35   20   21 1
  36   20   23 1
  37   20   36 1
  38   21   22 1
  39   21   37 1
  40   21   38 1
  41   22   39 1
  42   22   40 1
  43   23   41 1

#	End of record

