#	Name: ASD05250071
#	Creating user name:	WinNT
#	Creation time:	15. 06. 2019 20:58

#	Modifying user name:	WinNT
#	Modification time:	15. 06. 2019 20:58

#	Program:	/corina/corina34_cracker 3.40 0067  02.08.2006

@<TRIPOS>MOLECULE
ASD05250071
  32   33    0    0    0
SMALL
NO_CHARGES


@<TRIPOS>ATOM
   1 C1            -0.0167     1.3835     0.0096 C.ar    
   2 C2             0.0021    -0.0041     0.0020 C.ar    
   3 C3            -1.1874    -0.7187     0.0091 C.ar    
   4 C4            -2.3996    -0.0498     0.0238 C.ar    
   5 C5            -2.4238     1.3468     0.0320 C.ar    
   6 C6            -1.2237     2.0616     0.0306 C.ar    
   7 O7             1.1515     2.0778     0.0022 O.3     
   8 O8            -1.1625    -2.0775     0.0011 O.3     
   9 C9            -3.7115     2.0639     0.0476 C.2     
  10 C10           -3.7323     3.4064     0.0555 C.2     
  11 C11           -5.0195     4.1232     0.0712 C.ar    
  12 C12           -5.0437     5.5208     0.0794 C.ar    
  13 C13           -6.2499     6.1867     0.0935 C.ar    
  14 C14           -7.4406     5.4714     0.1001 C.ar    
  15 C15           -7.4217     4.0826     0.0925 C.ar    
  16 C16           -6.2204     3.4078     0.0720 C.ar    
  17 O17           -8.6275     6.1323     0.1146 O.3     
  18 C18           -9.8137     5.3356     0.1206 C.3     
  19 H19            0.9456    -0.5295    -0.0098 H       
  20 H20           -3.3248    -0.6068     0.0286 H       
  21 H21           -1.2374     3.1415     0.0372 H       
  22 H22            1.4812     2.2835    -0.8833 H       
  23 H23           -1.1470    -2.4758     0.8821 H       
  24 H24           -4.6383     1.5094     0.0528 H       
  25 H25           -2.8055     3.9609     0.0503 H       
  26 H26           -4.1184     6.0778     0.0750 H       
  27 H27           -6.2696     7.2665     0.0999 H       
  28 H28           -8.3500     3.5307     0.0984 H       
  29 H29           -6.2066     2.3279     0.0658 H       
  30 H30           -9.8368     4.7115    -0.7727 H       
  31 H31           -9.8208     4.7014     1.0071 H       
  32 H32          -10.6882     5.9860     0.1322 H       
@<TRIPOS>BOND
   1    1    2 ar
   2    1    7 1
   3    1    6 ar
   4    2    3 ar
   5    2   19 1
   6    3    4 ar
   7    3    8 1
   8    4    5 ar
   9    4   20 1
  10    5    6 ar
  11    5    9 1
  12    6   21 1
  13    7   22 1
  14    8   23 1
  15    9   10 2
  16    9   24 1
  17   10   11 1
  18   10   25 1
  19   11   12 ar
  20   11   16 ar
  21   12   13 ar
  22   12   26 1
  23   13   14 ar
  24   13   27 1
  25   14   15 ar
  26   14   17 1
  27   15   16 ar
  28   15   28 1
  29   16   29 1
  30   17   18 1
  31   18   30 1
  32   18   31 1
  33   18   32 1

#	End of record

