#	Name: ASD01000070
#	Creating user name:	WinNT
#	Creation time:	15. 06. 2019 18:54

#	Modifying user name:	WinNT
#	Modification time:	15. 06. 2019 18:54

#	Program:	/corina/corina34_cracker 3.40 0067  02.08.2006

@<TRIPOS>MOLECULE
ASD01000070
  46   48    0    0    0
SMALL
NO_CHARGES


@<TRIPOS>ATOM
   1 C1             2.0368     0.9495     0.0858 C.3     
   2 C2             0.5134    -0.7547    -1.5206 C.3     
   3 C3            -0.3657    -2.2207     5.6268 C.ar    
   4 C4             0.6367    -2.3761     6.5643 C.ar    
   5 C5             1.8010     2.2639     2.7232 C.ar    
   6 C6            -0.0494    -2.1252     4.2840 C.ar    
   7 C7             1.9990     3.6160     2.5163 C.ar    
   8 C8             2.2765    -2.3409     4.8101 C.ar    
   9 C9            -0.1967     2.3498     1.4047 C.ar    
  10 C10            1.9956    -0.5190     0.5135 C.3     
  11 C11            0.4905     0.1570     2.3953 C.3     
  12 C12            0.2450    -2.2231     0.3880 C.2     
  13 C13            1.7643    -0.6057     2.0258 C.3     
  14 C14            1.9619    -2.4369     6.1577 C.ar    
  15 C15            0.7040     1.6314     2.1681 C.ar    
  16 C16            1.0986     4.3384     1.7526 C.ar    
  17 C17           -0.0013     3.7040     1.1955 C.ar    
  18 C18            1.2702    -2.1850     3.8763 C.ar    
  19 C19            1.6113    -2.0807     2.4122 C.3     
  20 N20            0.5373    -2.6768     1.6160 N.am    
  21 N21            0.9008    -1.1999    -0.1797 N.am    
  22 O22           -0.5910    -0.2988     1.5801 O.3     
  23 O23            2.9500    -2.5893     7.0782 O.3     
  24 S24           -1.0151    -2.9800    -0.4897 S.2     
  25 F25            1.2912     5.6602     1.5502 F       
  26 F26           -0.8810     4.4069     0.4490 F       
  27 H27            2.6901     1.5055     0.7582 H       
  28 H28            2.4183     1.0207    -0.9327 H       
  29 H29            1.0313     1.3683     0.1274 H       
  30 H30            1.0888    -1.3037    -2.2660 H       
  31 H31           -0.5497    -0.9414    -1.6724 H       
  32 H32            0.7130     0.3121    -1.6210 H       
  33 H33           -1.3977    -2.1778     5.9424 H       
  34 H34            0.3892    -2.4503     7.6129 H       
  35 H35            2.5063     1.6999     3.3155 H       
  36 H36           -0.8347    -2.0041     3.5525 H       
  37 H37            2.8561     4.1090     2.9507 H       
  38 H38            3.3073    -2.3879     4.4911 H       
  39 H39           -1.0528     1.8545     0.9710 H       
  40 H40            2.9416    -0.9984     0.2616 H       
  41 H41            0.2535    -0.0183     3.4447 H       
  42 H42            2.6155    -0.1731     2.5517 H       
  43 H43            2.5457    -2.6071     2.2174 H       
  44 H44            0.0267    -3.4149     1.9838 H       
  45 H45           -0.5182    -0.0423     0.6506 H       
  46 H46            3.1721    -3.5111     7.2677 H       
@<TRIPOS>BOND
   1    1   10 1
   2    1   27 1
   3    1   28 1
   4    1   29 1
   5    2   21 1
   6    2   30 1
   7    2   31 1
   8    2   32 1
   9    3    4 ar
  10    3    6 ar
  11    3   33 1
  12    4   14 ar
  13    4   34 1
  14    5    7 ar
  15    5   15 ar
  16    5   35 1
  17    6   18 ar
  18    6   36 1
  19    7   16 ar
  20    7   37 1
  21    8   14 ar
  22    8   18 ar
  23    8   38 1
  24    9   15 ar
  25    9   17 ar
  26    9   39 1
  27   10   13 1
  28   10   21 1
  29   10   40 1
  30   11   13 1
  31   11   15 1
  32   11   22 1
  33   11   41 1
  34   12   20 am
  35   12   21 am
  36   12   24 2
  37   13   19 1
  38   13   42 1
  39   14   23 1
  40   16   17 ar
  41   16   25 1
  42   17   26 1
  43   18   19 1
  44   19   20 1
  45   19   43 1
  46   20   44 1
  47   22   45 1
  48   23   46 1

#	End of record

