#	Name: ASD08151097
#	Creating user name:	WinNT
#	Creation time:	15. 06. 2019 21:17

#	Modifying user name:	WinNT
#	Modification time:	15. 06. 2019 21:17

#	Program:	/corina/corina34_cracker 3.40 0067  02.08.2006

@<TRIPOS>MOLECULE
ASD08151097
  18   18    0    0    0
SMALL
NO_CHARGES


@<TRIPOS>ATOM
   1 C1            -0.0184     1.5028     0.0103 C.2     
   2 C2             0.0021    -0.0041     0.0020 C.3     
   3 C3             1.2422     2.2536     0.0023 C.ar    
   4 C4             1.2281     3.6583     0.0100 C.ar    
   5 C5             2.4246     4.3575     0.0028 C.ar    
   6 C6             3.6265     3.6754    -0.0119 C.ar    
   7 C7             3.6468     2.2867    -0.0200 C.ar    
   8 C8             2.4668     1.5743    -0.0072 C.ar    
   9 O9             0.0483     4.3275     0.0239 O.3     
  10 F10            4.8281     1.6313    -0.0352 F       
  11 Br11           5.2536     4.6390    -0.0216 Br      
  12 O12           -1.0770     2.0950     0.0185 O.2     
  13 H13            1.0345    -0.3534    -0.0097 H       
  14 H14           -0.4983    -0.3791     0.8948 H       
  15 H15           -0.5153    -0.3696    -0.8850 H       
  16 H16            2.4178     5.4374     0.0083 H       
  17 H17            2.4865     0.4945    -0.0086 H       
  18 H18           -0.2860     4.5168     0.9113 H       
@<TRIPOS>BOND
   1    1    2 1
   2    1    3 1
   3    1   12 2
   4    2   13 1
   5    2   14 1
   6    2   15 1
   7    3    4 ar
   8    3    8 ar
   9    4    5 ar
  10    4    9 1
  11    5    6 ar
  12    5   16 1
  13    6    7 ar
  14    6   11 1
  15    7    8 ar
  16    7   10 1
  17    8   17 1
  18    9   18 1

#	End of record

