#	Name: ASD01230034
#	Creating user name:	WinNT
#	Creation time:	15. 06. 2019 19:11

#	Modifying user name:	WinNT
#	Modification time:	15. 06. 2019 19:11

#	Program:	/corina/corina34_cracker 3.40 0067  02.08.2006

@<TRIPOS>MOLECULE
ASD01230034
  42   44    0    0    0
SMALL
NO_CHARGES


@<TRIPOS>ATOM
   1 C1            -1.6010     1.7640     0.9168 C.3     
   2 C2            -1.7334     0.2657     1.1969 C.3     
   3 C3            -3.1966    -0.0707     1.4914 C.3     
   4 S4            -1.1773    -0.6719    -0.2529 S.o2    
   5 O5            -2.0668    -0.4772    -1.3439 O.2     
   6 O6             0.2278    -0.5430    -0.4213 O.2     
   7 N7            -1.3938    -2.2576     0.1725 N.am    
   8 C8            -1.5149    -3.4665     2.3311 C.3     
   9 C9            -0.6001    -2.8398     1.2576 C.3     
  10 C10            0.2049    -4.0574     0.7561 C.3     
  11 C11            0.2202    -5.0280     1.9178 C.ar    
  12 C12            1.0339    -6.1196     2.1601 C.ar    
  13 C13            0.8599    -6.8781     3.3145 C.ar    
  14 C14           -0.1379    -6.5316     4.2239 C.ar    
  15 C15           -0.9444    -5.4417     3.9741 C.ar    
  16 C16           -0.7687    -4.6885     2.8236 C.ar    
  17 C17            1.7318    -8.0496     3.5751 C.ar    
  18 C18            1.5491    -8.8020     4.7337 C.ar    
  19 C19            2.3694    -9.8920     4.9643 C.ar    
  20 C20            3.3487   -10.1952     4.0258 C.ar    
  21 C21            3.4738    -9.4035     2.8964 C.ar    
  22 N22            2.6746    -8.3745     2.7006 N.ar    
  23 F23            4.1705   -11.2509     4.2137 F       
  24 H24           -1.9352     2.3275     1.7880 H       
  25 H25           -0.5586     2.0037     0.7070 H       
  26 H26           -2.2150     2.0283     0.0558 H       
  27 H27           -1.1195     0.0015     2.0579 H       
  28 H28           -3.3041    -1.1485     1.6138 H       
  29 H29           -3.5078     0.4319     2.4072 H       
  30 H30           -3.8204     0.2648     0.6628 H       
  31 H31           -2.0462    -2.8010    -0.2967 H       
  32 H32           -1.6731    -2.7645     3.1498 H       
  33 H33           -2.4690    -3.7577     1.8918 H       
  34 H34            0.0606    -2.0938     1.6992 H       
  35 H35           -0.2874    -4.5071    -0.1061 H       
  36 H36            1.2213    -3.7589     0.4992 H       
  37 H37            1.8055    -6.3844     1.4523 H       
  38 H38           -0.2791    -7.1154     5.1214 H       
  39 H39           -1.7175    -5.1732     4.6787 H       
  40 H40            0.7780    -8.5376     5.4421 H       
  41 H41            2.2515   -10.4935     5.8536 H       
  42 H42            4.2334    -9.6352     2.1644 H       
@<TRIPOS>BOND
   1    1    2 1
   2    1   24 1
   3    1   25 1
   4    1   26 1
   5    2    3 1
   6    2    4 1
   7    2   27 1
   8    3   28 1
   9    3   29 1
  10    3   30 1
  11    4    5 2
  12    4    6 2
  13    4    7 am
  14    7    9 1
  15    7   31 1
  16    8    9 1
  17    8   16 1
  18    8   32 1
  19    8   33 1
  20    9   10 1
  21    9   34 1
  22   10   11 1
  23   10   35 1
  24   10   36 1
  25   11   12 ar
  26   11   16 ar
  27   12   13 ar
  28   12   37 1
  29   13   14 ar
  30   13   17 1
  31   14   15 ar
  32   14   38 1
  33   15   16 ar
  34   15   39 1
  35   17   18 ar
  36   17   22 ar
  37   18   19 ar
  38   18   40 1
  39   19   20 ar
  40   19   41 1
  41   20   21 ar
  42   20   23 1
  43   21   22 ar
  44   21   42 1

#	End of record

