#	Name: ASD01870259
#	Creating user name:	WinNT
#	Creation time:	15. 06. 2019 19:38

#	Modifying user name:	WinNT
#	Modification time:	15. 06. 2019 19:38

#	Program:	/corina/corina34_cracker 3.40 0067  02.08.2006

@<TRIPOS>MOLECULE
ASD01870259
  63   67    0    0    0
SMALL
NO_CHARGES


@<TRIPOS>ATOM
   1 C1             0.2219     1.1382    -0.1869 C.ar    
   2 C2             0.3240    -0.2507    -0.1766 C.ar    
   3 C3             1.5401    -0.8666    -0.1657 C.ar    
   4 C4             2.7080    -0.0922    -0.1652 C.ar    
   5 C5             2.6037     1.3251    -0.1762 C.ar    
   6 C6             1.3357     1.9238    -0.1867 C.ar    
   7 C7             3.9897    -0.6732    -0.1547 C.ar    
   8 N8             5.0593     0.0783    -0.1546 N.ar    
   9 C9             5.0073     1.4174    -0.1648 C.ar    
  10 C10            3.7878     2.0733    -0.1760 C.ar    
  11 C11            6.0781     2.4378    -0.1672 C.2     
  12 N12            5.5476     3.6724    -0.1793 N.am    
  13 C13            4.0852     3.5502    -0.1858 C.3     
  14 C14            6.3018     4.9283    -0.1842 C.3     
  15 C15            7.1766     5.0027     1.0689 C.3     
  16 C16            8.1506     3.8229     1.0817 C.3     
  17 C17            9.0376     3.8803    -0.1637 C.3     
  18 C18            8.1628     3.8059    -1.4167 C.3     
  19 C19            7.1888     4.9857    -1.4295 C.3     
  20 C20            4.1302    -2.1736    -0.1429 C.3     
  21 C21            4.1840    -2.6843    -1.5597 C.ar    
  22 C22            5.3952    -2.8100    -2.2121 C.ar    
  23 N23            5.4510    -3.2561    -3.4521 N.ar    
  24 C24            4.3630    -3.5984    -4.1156 C.ar    
  25 C25            3.1147    -3.4990    -3.5263 C.ar    
  26 C26            3.0184    -3.0392    -2.2227 C.ar    
  27 O27            7.2688     2.1942    -0.1592 O.2     
  28 O28            6.3482     4.9491     2.2320 O.3     
  29 Cl29           4.4988    -4.1791    -5.7459 Cl      
  30 C30            3.2783     7.8792    -2.5420 C.3     
  31 C31            3.0359     6.3691    -2.5840 C.3     
  32 C32            3.7513     5.7047    -1.4061 C.3     
  33 C33            3.5089     4.1946    -1.4481 C.3     
  34 H34           -0.7544     1.5997    -0.1996 H       
  35 H35           -0.5748    -0.8494    -0.1769 H       
  36 H36            1.6031    -1.9448    -0.1571 H       
  37 H37            1.2423     2.9997    -0.1955 H       
  38 H38            3.6655     4.0230     0.7022 H       
  39 H39            5.6079     5.7688    -0.1933 H       
  40 H40            7.7377     5.9372     1.0653 H       
  41 H41            8.7738     3.8759     1.9743 H       
  42 H42            7.5895     2.8885     1.0853 H       
  43 H43            9.5988     4.8148    -0.1673 H       
  44 H44            9.7315     3.0398    -0.1546 H       
  45 H45            8.7947     3.8468    -2.3039 H       
  46 H46            7.6017     2.8715    -1.4131 H       
  47 H47            6.5656     4.9327    -2.3222 H       
  48 H48            7.7499     5.9202    -1.4331 H       
  49 H49            5.0477    -2.4485     0.3774 H       
  50 H50            3.2755    -2.6146     0.3700 H       
  51 H51            6.3072    -2.5395    -1.7008 H       
  52 H52            2.2273    -3.7799    -4.0742 H       
  53 H53            2.0577    -2.9516    -1.7371 H       
  54 H54            6.8369     4.9916     3.0653 H       
  55 H55            4.3481     8.0774    -2.6080 H       
  56 H56            2.7686     8.3525    -3.3812 H       
  57 H57            2.8909     8.2835    -1.6068 H       
  58 H58            1.9661     6.1709    -2.5180 H       
  59 H59            3.4233     5.9649    -3.5192 H       
  60 H60            4.8211     5.9029    -1.4721 H       
  61 H61            3.3639     6.1090    -0.4709 H       
  62 H62            3.9969     3.7726    -2.3267 H       
  63 H63            2.4376     3.9999    -1.4989 H       
@<TRIPOS>BOND
   1    1    2 ar
   2    1    6 ar
   3    1   34 1
   4    2    3 ar
   5    2   35 1
   6    3    4 ar
   7    3   36 1
   8    4    5 ar
   9    4    7 ar
  10    5    6 ar
  11    5   10 ar
  12    6   37 1
  13    7    8 ar
  14    7   20 1
  15    8    9 ar
  16    9   10 ar
  17    9   11 1
  18   10   13 1
  19   11   12 am
  20   11   27 2
  21   12   13 1
  22   12   14 1
  23   13   33 1
  24   13   38 1
  25   14   15 1
  26   14   19 1
  27   14   39 1
  28   15   16 1
  29   15   28 1
  30   15   40 1
  31   16   17 1
  32   16   41 1
  33   16   42 1
  34   17   18 1
  35   17   43 1
  36   17   44 1
  37   18   19 1
  38   18   45 1
  39   18   46 1
  40   19   47 1
  41   19   48 1
  42   20   21 1
  43   20   49 1
  44   20   50 1
  45   21   22 ar
  46   21   26 ar
  47   22   23 ar
  48   22   51 1
  49   23   24 ar
  50   24   25 ar
  51   24   29 1
  52   25   26 ar
  53   25   52 1
  54   26   53 1
  55   28   54 1
  56   30   31 1
  57   30   55 1
  58   30   56 1
  59   30   57 1
  60   31   32 1
  61   31   58 1
  62   31   59 1
  63   32   33 1
  64   32   60 1
  65   32   61 1
  66   33   62 1
  67   33   63 1

#	End of record

