#	Name: ASD01912379
#	Creating user name:	WinNT
#	Creation time:	15. 06. 2019 19:59

#	Modifying user name:	WinNT
#	Modification time:	15. 06. 2019 19:59

#	Program:	/corina/corina34_cracker 3.40 0067  02.08.2006

@<TRIPOS>MOLECULE
ASD01912379
  52   55    0    0    0
SMALL
NO_CHARGES


@<TRIPOS>ATOM
   1 C1            -0.5765     1.2889    -1.4880 C.ar    
   2 N2            -0.5534    -0.0366    -1.4604 N.ar    
   3 C3             0.3354    -0.7118    -2.1686 C.ar    
   4 C4             1.2499    -0.0170    -2.9461 C.ar    
   5 C5             1.1978     1.3689    -2.9519 C.ar    
   6 N6             0.2836     1.9829    -2.2206 N.ar    
   7 C7            -1.5924     2.0122    -0.6850 C.ar    
   8 C8            -1.6323     3.4029    -0.7011 C.ar    
   9 C9            -2.5899     4.0755     0.0555 C.ar    
  10 C10           -3.5027     3.3503     0.8246 C.ar    
  11 C11           -3.4566     1.9709     0.8358 C.ar    
  12 C12           -2.5128     1.2994     0.0829 C.ar    
  13 C13           -2.6391     5.5533     0.0447 C.2     
  14 O14           -1.6103     6.1962     0.1197 O.2     
  15 N15           -3.8247     6.1874    -0.0485 N.am    
  16 C16           -3.8963     7.6495     0.0692 C.3     
  17 C17           -4.5399     8.2163    -1.2027 C.3     
  18 C18           -5.8102     7.4432    -1.4811 C.2     
  19 C19           -5.7333     5.9337    -1.5494 C.3     
  20 C20           -5.0591     5.4247    -0.2749 C.3     
  21 C21           -6.9686     8.0762    -1.6614 C.2     
  22 C22           -8.1606     7.3273    -1.9239 C.1     
  23 C23           -9.1378     6.7133    -2.1392 C.1     
  24 C24          -10.3298     5.9644    -2.4017 C.ar    
  25 C25          -11.5426     6.6336    -2.5901 C.ar    
  26 C26          -12.6842     5.8954    -2.8426 C.ar    
  27 C27          -12.5807     4.5117    -2.8996 C.ar    
  28 C28          -11.3494     3.9134    -2.7039 C.ar    
  29 N29          -10.2742     4.6374    -2.4700 N.ar    
  30 C30          -11.2349     2.4120    -2.7653 C.3     
  31 H31            0.3494    -1.7913    -2.1419 H       
  32 H32            1.9869    -0.5438    -3.5341 H       
  33 H33            1.8958     1.9396    -3.5463 H       
  34 H34           -0.9238     3.9588    -1.2972 H       
  35 H35           -4.2457     3.8697     1.4117 H       
  36 H36           -4.1642     1.4140     1.4321 H       
  37 H37           -2.4850     0.2198     0.0921 H       
  38 H38           -4.5014     7.9171     0.9353 H       
  39 H39           -2.8916     8.0565     0.1829 H       
  40 H40           -4.7763     9.2701    -1.0560 H       
  41 H41           -3.8526     8.1072    -2.0417 H       
  42 H42           -6.7381     5.5182    -1.6260 H       
  43 H43           -5.1452     5.6351    -2.4172 H       
  44 H44           -4.8198     4.3673    -0.3877 H       
  45 H45           -5.7330     5.5608     0.5709 H       
  46 H46           -7.0086     9.1543    -1.6095 H       
  47 H47          -11.5873     7.7114    -2.5387 H       
  48 H48          -13.6355     6.3842    -2.9920 H       
  49 H49          -13.4546     3.9079    -3.0947 H       
  50 H50          -11.0200     2.1055    -3.7890 H       
  51 H51          -10.4285     2.0820    -2.1104 H       
  52 H52          -12.1735     1.9625    -2.4409 H       
@<TRIPOS>BOND
   1    1    2 ar
   2    1    6 ar
   3    1    7 1
   4    2    3 ar
   5    3    4 ar
   6    3   31 1
   7    4    5 ar
   8    4   32 1
   9    5    6 ar
  10    5   33 1
  11    7    8 ar
  12    7   12 ar
  13    8    9 ar
  14    8   34 1
  15    9   10 ar
  16    9   13 1
  17   10   11 ar
  18   10   35 1
  19   11   12 ar
  20   11   36 1
  21   12   37 1
  22   13   14 2
  23   13   15 am
  24   15   16 1
  25   15   20 1
  26   16   17 1
  27   16   38 1
  28   16   39 1
  29   17   18 1
  30   17   40 1
  31   17   41 1
  32   18   19 1
  33   18   21 2
  34   19   20 1
  35   19   42 1
  36   19   43 1
  37   20   44 1
  38   20   45 1
  39   21   22 1
  40   21   46 1
  41   22   23 3
  42   23   24 1
  43   24   25 ar
  44   24   29 ar
  45   25   26 ar
  46   25   47 1
  47   26   27 ar
  48   26   48 1
  49   27   28 ar
  50   27   49 1
  51   28   29 ar
  52   28   30 1
  53   30   50 1
  54   30   51 1
  55   30   52 1

#	End of record

