#	Name: ASD02198161
#	Creating user name:	WinNT
#	Creation time:	15. 06. 2019 20:18

#	Modifying user name:	WinNT
#	Modification time:	15. 06. 2019 20:18

#	Program:	/corina/corina34_cracker 3.40 0067  02.08.2006

@<TRIPOS>MOLECULE
ASD02198161
  49   52    0    0    0
SMALL
NO_CHARGES


@<TRIPOS>ATOM
   1 C1             1.2097     1.0003    -0.5913 C.2     
   2 C2             1.1051    -0.3622    -0.4054 C.2     
   3 C3            -0.1499    -1.0351    -0.2538 C.1     
   4 S4             2.8420     1.4709    -0.7354 S.3     
   5 C5             3.4040    -0.1821    -0.5443 C.2     
   6 C6             2.3300    -1.0249    -0.3788 C.2     
   7 C7             4.7529    -0.5842    -0.5580 C.2     
   8 C8             5.8154     0.3996    -0.8640 C.ar    
   9 O9             5.0461    -1.7432    -0.3178 O.2     
  10 N10            2.4537    -2.3942    -0.2038 N.pl3   
  11 N11            0.1401     1.8632    -0.6575 N.pl3   
  12 N12           -1.1454    -1.5690    -0.1336 N.1     
  13 C13            6.0123     0.8330    -2.1756 C.ar    
  14 C14            7.0046     1.7504    -2.4543 C.ar    
  15 C15            7.8036     2.2400    -1.4366 C.ar    
  16 C16            7.6135     1.8143    -0.1338 C.ar    
  17 C17            6.6209     0.9022     0.1590 C.ar    
  18 C18            0.3573     3.2428    -0.7059 C.ar    
  19 C19           -0.5486     4.0662    -1.3669 C.ar    
  20 C20           -0.3307     5.4294    -1.4123 C.ar    
  21 C21            1.6859     5.1546    -0.1385 C.ar    
  22 C22            1.4740     3.7911    -0.0895 C.ar    
  23 C23            0.7880     5.9705    -0.8002 C.ar    
  24 C24            8.8861     3.2411    -1.7484 C.3     
  25 C25            5.1434     0.2999    -3.2855 C.3     
  26 C26           -1.8269     3.7268    -2.1029 C.3     
  27 C27           -2.5896     5.0631    -2.2249 C.3     
  28 C28           -1.4478     6.1008    -2.1824 C.3     
  29 H29            3.3327    -2.8044    -0.1937 H       
  30 H30            1.6614    -2.9423    -0.0915 H       
  31 H31           -0.7647     1.5139    -0.6706 H       
  32 H32            7.1580     2.0866    -3.4691 H       
  33 H33            8.2406     2.2003     0.6562 H       
  34 H34            6.4732     0.5709     1.1762 H       
  35 H35            2.5538     5.5836     0.3402 H       
  36 H36            2.1752     3.1527     0.4273 H       
  37 H37            0.9572     7.0366    -0.8368 H       
  38 H38            8.4814     4.2501    -1.6702 H       
  39 H39            9.7057     3.1224    -1.0397 H       
  40 H40            9.2543     3.0747    -2.7607 H       
  41 H41            4.3126     0.9842    -3.4571 H       
  42 H42            5.7337     0.2091    -4.1973 H       
  43 H43            4.7555    -0.6793    -3.0048 H       
  44 H44           -1.5996     3.3294    -3.0921 H       
  45 H45           -2.4131     3.0076    -1.5310 H       
  46 H46           -3.1275     5.1174    -3.1714 H       
  47 H47           -3.2689     5.1998    -1.3835 H       
  48 H48           -1.7752     7.0025    -1.6649 H       
  49 H49           -1.1184     6.3423    -3.1930 H       
@<TRIPOS>BOND
   1    1    2 2
   2    1    4 1
   3    1   11 1
   4    2    3 1
   5    2    6 1
   6    3   12 3
   7    4    5 1
   8    5    6 2
   9    5    7 1
  10    6   10 1
  11    7    8 1
  12    7    9 2
  13    8   13 ar
  14    8   17 ar
  15   10   29 1
  16   10   30 1
  17   11   18 1
  18   11   31 1
  19   13   14 ar
  20   13   25 1
  21   14   15 ar
  22   14   32 1
  23   15   16 ar
  24   15   24 1
  25   16   17 ar
  26   16   33 1
  27   17   34 1
  28   18   19 ar
  29   18   22 ar
  30   19   20 ar
  31   19   26 1
  32   20   23 ar
  33   20   28 1
  34   21   22 ar
  35   21   23 ar
  36   21   35 1
  37   22   36 1
  38   23   37 1
  39   24   38 1
  40   24   39 1
  41   24   40 1
  42   25   41 1
  43   25   42 1
  44   25   43 1
  45   26   27 1
  46   26   44 1
  47   26   45 1
  48   27   28 1
  49   27   46 1
  50   27   47 1
  51   28   48 1
  52   28   49 1

#	End of record

