#	Name: ASD03091193
#	Creating user name:	WinNT
#	Creation time:	15. 06. 2019 20:30

#	Modifying user name:	WinNT
#	Modification time:	15. 06. 2019 20:30

#	Program:	/corina/corina34_cracker 3.40 0067  02.08.2006

@<TRIPOS>MOLECULE
ASD03091193
  61   65    0    0    0
SMALL
NO_CHARGES


@<TRIPOS>ATOM
   1 C1            -0.9651    -1.1097     0.2271 C.2     
   2 C2            -0.0104     0.0317    -0.0113 C.3     
   3 O3            -0.5396    -2.2363     0.3709 O.2     
   4 N4            -2.2914    -0.8776     0.2861 N.am    
   5 C5            -3.2196    -1.9872     0.5179 C.3     
   6 C6            -3.3456    -2.2411     2.0214 C.3     
   7 C7            -4.5926    -1.6319    -0.0562 C.3     
   8 N8             3.2531    -1.0794     1.2157 N.2     
   9 C9             2.0355    -0.6354     1.1455 C.2     
  10 N10            1.3638    -0.4760    -0.0256 N.am    
  11 C11            1.9533    -0.7827    -1.2047 C.2     
  12 C12            3.3333    -1.2886    -1.1601 C.ar    
  13 C13            4.0291    -1.6333    -2.3166 C.ar    
  14 C14            5.3268    -2.1048    -2.2119 C.ar    
  15 C15            5.9321    -2.2336    -0.9619 C.ar    
  16 C16            5.2612    -1.8997     0.1797 C.ar    
  17 C17            3.9513    -1.4212     0.1031 C.ar    
  18 O18            1.3639    -0.6455    -2.2610 O.2     
  19 C19            1.3298    -0.2786     2.4284 C.3     
  20 C20            1.7855    -0.9866     3.7059 C.3     
  21 C21            2.1287     0.4878     3.4845 C.3     
  22 N22            7.1009    -2.1258    -6.1088 N.3     
  23 C23            5.8638    -2.8630    -5.8093 C.3     
  24 C24            5.1958    -2.3071    -4.5615 C.3     
  25 N25            6.0342    -2.4540    -3.3657 N.3     
  26 C26            7.2618    -1.6561    -3.4925 C.3     
  27 C27            8.3953    -2.5097    -4.0414 C.3     
  28 C28            8.2546    -2.8193    -5.5181 C.3     
  29 C29            7.0873    -0.7079    -5.8196 C.3     
  30 C30            6.9707    -0.4249    -4.3309 C.3     
  31 H31           -0.2350     0.4991    -0.9700 H       
  32 H32           -0.1175     0.7675     0.7857 H       
  33 H33           -2.6315     0.0240     0.1751 H       
  34 H34           -2.8422    -2.8849     0.0282 H       
  35 H35           -3.7230    -1.3433     2.5111 H       
  36 H36           -4.0362    -3.0666     2.1938 H       
  37 H37           -2.3675    -2.4941     2.4304 H       
  38 H38           -4.5028    -1.4511    -1.1273 H       
  39 H39           -5.2831    -2.4575     0.1162 H       
  40 H40           -4.9700    -0.7342     0.4335 H       
  41 H41            3.5611    -1.5342    -3.2848 H       
  42 H42            6.9449    -2.6027    -0.8960 H       
  43 H43            5.7429    -2.0056     1.1406 H       
  44 H44            0.2691    -0.0464     2.3327 H       
  45 H45            1.0247    -1.2200     4.4507 H       
  46 H46            2.5957    -1.7106     3.6184 H       
  47 H47            3.1646     0.7340     3.2514 H       
  48 H48            1.5936     1.2246     4.0837 H       
  49 H49            5.1795    -2.7738    -6.6530 H       
  50 H50            6.1020    -3.9148    -5.6508 H       
  51 H51            4.9837    -1.2491    -4.7161 H       
  52 H52            4.2552    -2.8338    -4.4001 H       
  53 H53            7.5464    -1.3148    -2.4972 H       
  54 H54            9.3369    -1.9841    -3.8827 H       
  55 H55            8.4248    -3.4487    -3.4887 H       
  56 H56            8.1272    -3.8942    -5.6458 H       
  57 H57            9.1613    -2.5057    -6.0354 H       
  58 H58            8.0092    -0.2621    -6.1931 H       
  59 H59            6.2419    -0.2504    -6.3337 H       
  60 H60            5.9600    -0.0794    -4.1140 H       
  61 H61            7.6771     0.3610    -4.0633 H       
@<TRIPOS>BOND
   1    1    2 1
   2    1    3 2
   3    1    4 am
   4    2   10 1
   5    2   31 1
   6    2   32 1
   7    4    5 1
   8    4   33 1
   9    5    6 1
  10    5    7 1
  11    5   34 1
  12    6   35 1
  13    6   36 1
  14    6   37 1
  15    7   38 1
  16    7   39 1
  17    7   40 1
  18    8    9 2
  19    8   17 1
  20    9   10 1
  21    9   19 1
  22   10   11 am
  23   11   12 1
  24   11   18 2
  25   12   13 ar
  26   12   17 ar
  27   13   14 ar
  28   13   41 1
  29   14   15 ar
  30   14   25 1
  31   15   16 ar
  32   15   42 1
  33   16   17 ar
  34   16   43 1
  35   19   20 1
  36   19   21 1
  37   19   44 1
  38   20   21 1
  39   20   45 1
  40   20   46 1
  41   21   47 1
  42   21   48 1
  43   22   23 1
  44   22   28 1
  45   22   29 1
  46   23   24 1
  47   23   49 1
  48   23   50 1
  49   24   25 1
  50   24   51 1
  51   24   52 1
  52   25   26 1
  53   26   27 1
  54   26   30 1
  55   26   53 1
  56   27   28 1
  57   27   54 1
  58   27   55 1
  59   28   56 1
  60   28   57 1
  61   29   30 1
  62   29   58 1
  63   29   59 1
  64   30   60 1
  65   30   61 1

#	End of record

