#	Name: ASD02500263
#	Creating user name:	WinNT
#	Creation time:	15. 06. 2019 20:22

#	Modifying user name:	WinNT
#	Modification time:	15. 06. 2019 20:22

#	Program:	/corina/corina34_cracker 3.40 0067  02.08.2006

@<TRIPOS>MOLECULE
ASD02500263
  74   78    0    0    0
SMALL
NO_CHARGES


@<TRIPOS>ATOM
   1 N1            -0.1828     0.6162    -1.7702 N.am    
   2 C2            -0.0434    -0.7907    -1.3689 C.3     
   3 C3             1.1027    -1.4182    -2.1720 C.3     
   4 N4             2.2755    -0.5370    -2.0837 N.am    
   5 C5             2.1361     0.8699    -2.4850 C.3     
   6 C6             0.9900     1.4974    -1.6818 C.3     
   7 C7            -1.3635     1.0885    -2.2165 C.2     
   8 O8            -2.3250     0.3490    -2.2899 O.2     
   9 O9            -1.4778     2.3795    -2.5810 O.3     
  10 C10            3.4576    -1.0105    -1.6422 C.2     
  11 C11            4.6517    -0.1497    -1.6690 C.ar    
  12 C12            5.4625    -0.0340    -0.5286 C.ar    
  13 C13            6.5827     0.7772    -0.5645 C.ar    
  14 C14            6.8981     1.4712    -1.7264 C.ar    
  15 C15            6.0899     1.3533    -2.8554 C.ar    
  16 C16            4.9856     0.5511    -2.8324 C.ar    
  17 O17            3.5378    -2.1489    -1.2215 O.2     
  18 S18            9.0649     2.2046    -3.0479 S.o2    
  19 O19            8.2699     2.3431    -4.2174 O.2     
  20 O20           10.1514     3.0671    -2.7400 O.2     
  21 N21            8.0241     2.2865    -1.7625 N.am    
  22 N22           10.8381     0.9068    -0.9995 N.ar    
  23 C23           11.6020     0.4885    -0.0199 C.ar    
  24 C24           12.1428    -0.7956    -0.0088 C.ar    
  25 C25           11.8801    -1.6548    -1.0375 C.ar    
  26 C26           11.0589    -1.2022    -2.0876 C.ar    
  27 C27           10.7455    -2.0282    -3.1786 C.ar    
  28 C28            9.9479    -1.5533    -4.1749 C.ar    
  29 C29            9.4375    -0.2579    -4.1258 C.ar    
  30 C30            9.7219     0.5700    -3.0836 C.ar    
  31 C31           10.5421     0.1163    -2.0362 C.ar    
  32 O32            5.1489    -0.7137     0.6028 O.3     
  33 C33            6.0206    -0.5465     1.7228 C.3     
  34 C34           -2.7791     2.8188    -3.0519 C.3     
  35 C35           -2.7149     4.3032    -3.4172 C.3     
  36 C36           -4.0861     4.7661    -3.9135 C.3     
  37 C37           -4.0705     6.2839    -4.1661 C.3     
  38 C38           -4.3876     6.4849    -5.6624 C.3     
  39 C39           -5.1516     5.1990    -6.0648 C.3     
  40 C40           -4.4123     4.0977    -5.2651 C.3     
  41 H41            0.1826    -0.8467    -0.3040 H       
  42 H42           -0.9709    -1.3241    -1.5771 H       
  43 H43            1.3477    -2.3959    -1.7571 H       
  44 H44            0.8031    -1.5251    -3.2146 H       
  45 H45            3.0636     1.4033    -2.2768 H       
  46 H46            1.9101     0.9260    -3.5498 H       
  47 H47            0.7451     2.4751    -2.0967 H       
  48 H48            1.2896     1.6043    -0.6393 H       
  49 H49            7.2107     0.8712     0.3091 H       
  50 H50            6.3410     1.8959    -3.7548 H       
  51 H51            4.3663     0.4610    -3.7125 H       
  52 H52            8.1998     2.9032    -1.0347 H       
  53 H53           11.8183     1.1570     0.8002 H       
  54 H54           12.7694    -1.1111     0.8123 H       
  55 H55           12.2912    -2.6534    -1.0452 H       
  56 H56           11.1349    -3.0344    -3.2277 H       
  57 H57            9.7072    -2.1894    -5.0138 H       
  58 H58            8.8078     0.0958    -4.9287 H       
  59 H59            5.6562    -1.1432     2.5590 H       
  60 H60            7.0249    -0.8735     1.4535 H       
  61 H61            6.0455     0.5046     2.0100 H       
  62 H62           -3.0616     2.2401    -3.9313 H       
  63 H63           -3.5193     2.6698    -2.2658 H       
  64 H64           -2.4324     4.8819    -2.5378 H       
  65 H65           -1.9747     4.4521    -4.2034 H       
  66 H66           -4.8521     4.5177    -3.1789 H       
  67 H67           -4.8294     6.7720    -3.5548 H       
  68 H68           -3.0859     6.6907    -3.9352 H       
  69 H69           -5.0175     7.3630    -5.8043 H       
  70 H70           -3.4669     6.5776    -6.2384 H       
  71 H71           -6.1970     5.2602    -5.7623 H       
  72 H72           -5.0684     5.0197    -7.1368 H       
  73 H73           -3.4955     3.8049    -5.7769 H       
  74 H74           -5.0602     3.2338    -5.1169 H       
@<TRIPOS>BOND
   1    1    2 1
   2    1    6 1
   3    1    7 am
   4    2    3 1
   5    2   41 1
   6    2   42 1
   7    3    4 1
   8    3   43 1
   9    3   44 1
  10    4    5 1
  11    4   10 am
  12    5    6 1
  13    5   45 1
  14    5   46 1
  15    6   47 1
  16    6   48 1
  17    7    8 2
  18    7    9 1
  19    9   34 1
  20   10   11 1
  21   10   17 2
  22   11   12 ar
  23   11   16 ar
  24   12   13 ar
  25   12   32 1
  26   13   14 ar
  27   13   49 1
  28   14   15 ar
  29   14   21 1
  30   15   16 ar
  31   15   50 1
  32   16   51 1
  33   18   19 2
  34   18   20 2
  35   18   21 am
  36   18   30 1
  37   21   52 1
  38   22   23 ar
  39   22   31 ar
  40   23   24 ar
  41   23   53 1
  42   24   25 ar
  43   24   54 1
  44   25   26 ar
  45   25   55 1
  46   26   27 ar
  47   26   31 ar
  48   27   28 ar
  49   27   56 1
  50   28   29 ar
  51   28   57 1
  52   29   30 ar
  53   29   58 1
  54   30   31 ar
  55   32   33 1
  56   33   59 1
  57   33   60 1
  58   33   61 1
  59   34   35 1
  60   34   62 1
  61   34   63 1
  62   35   36 1
  63   35   64 1
  64   35   65 1
  65   36   37 1
  66   36   40 1
  67   36   66 1
  68   37   38 1
  69   37   67 1
  70   37   68 1
  71   38   39 1
  72   38   69 1
  73   38   70 1
  74   39   40 1
  75   39   71 1
  76   39   72 1
  77   40   73 1
  78   40   74 1

#	End of record

