#	Name: ASD01420340
#	Creating user name:	WinNT
#	Creation time:	15. 06. 2019 19:20

#	Modifying user name:	WinNT
#	Modification time:	15. 06. 2019 19:20

#	Program:	/corina/corina34_cracker 3.40 0067  02.08.2006

@<TRIPOS>MOLECULE
ASD01420340
  25   25    0    0    0
SMALL
NO_CHARGES


@<TRIPOS>ATOM
   1 C1             0.7621     1.4104    -0.3980 C.2     
   2 C2             0.5772    -0.0466    -0.2994 C.ar    
   3 C3             1.6414    -0.9136    -0.5929 C.ar    
   4 C4             1.4587    -2.2824    -0.4975 C.ar    
   5 C5             0.2276    -2.7934    -0.1136 C.ar    
   6 C6            -0.8283    -1.9354     0.1777 C.ar    
   7 C7            -0.6579    -0.5728     0.0927 C.ar    
   8 O8             1.8379     1.8651    -0.7342 O.2     
   9 O9            -0.2633     2.2401    -0.1209 O.3     
  10 O10            2.8443    -0.4119    -0.9690 O.3     
  11 O11            0.0521    -4.1365    -0.0222 O.3     
  12 C12            0.5742    -4.7477     1.0538 C.2     
  13 O13            1.0862    -4.0935     1.9311 O.2     
  14 C14            0.5214    -6.2496     1.1668 C.3     
  15 C15           -0.0090     3.6647    -0.2391 C.3     
  16 H16            2.2749    -2.9528    -0.7225 H       
  17 H17           -1.7840    -2.3405     0.4759 H       
  18 H18           -1.4786     0.0898     0.3244 H       
  19 H19            3.4470    -0.2412    -0.2323 H       
  20 H20            0.0266    -6.6629     0.2878 H       
  21 H21            1.5351    -6.6448     1.2326 H       
  22 H22           -0.0357    -6.5273     2.0615 H       
  23 H23            0.7908     3.9490     0.4448 H       
  24 H24            0.2877     3.8972    -1.2618 H       
  25 H25           -0.9145     4.2175     0.0111 H       
@<TRIPOS>BOND
   1    1    2 1
   2    1    8 2
   3    1    9 1
   4    2    3 ar
   5    2    7 ar
   6    3    4 ar
   7    3   10 1
   8    4    5 ar
   9    4   16 1
  10    5    6 ar
  11    5   11 1
  12    6    7 ar
  13    6   17 1
  14    7   18 1
  15    9   15 1
  16   10   19 1
  17   11   12 1
  18   12   13 2
  19   12   14 1
  20   14   20 1
  21   14   21 1
  22   14   22 1
  23   15   23 1
  24   15   24 1
  25   15   25 1

#	End of record

