#	Name: ASD03740254
#	Creating user name:	WinNT
#	Creation time:	15. 06. 2019 20:47

#	Modifying user name:	WinNT
#	Modification time:	15. 06. 2019 20:47

#	Program:	/corina/corina34_cracker 3.40 0067  02.08.2006

@<TRIPOS>MOLECULE
ASD03740254
  27   29    0    0    0
SMALL
NO_CHARGES


@<TRIPOS>ATOM
   1 N1            -0.0158     1.3106     0.0092 N.ar    
   2 C2             0.0021    -0.0041     0.0020 C.ar    
   3 N3             1.1244    -0.7017    -0.0120 N.ar    
   4 C4             2.3085    -0.0999    -0.0201 C.ar    
   5 C5             2.3438     1.3082    -0.0133 C.ar    
   6 C6             1.1206     2.0060     0.0021 C.ar    
   7 N7             1.4306     3.3334     0.0063 N.pl3   
   8 N8             2.8256     3.4581    -0.0064 N.2     
   9 C9             3.3717     2.2756    -0.0180 C.2     
  10 N10            3.4765    -0.8367    -0.0342 N.pl3   
  11 N11            3.4216    -2.2366    -0.0403 N.pl3   
  12 C12            4.6028    -2.9818    -0.0547 C.ar    
  13 C13            4.5502    -4.3699    -0.0607 C.ar    
  14 C14            5.7201    -5.1037    -0.0749 C.ar    
  15 C15            6.9430    -4.4581    -0.0830 C.ar    
  16 C16            6.9990    -3.0764    -0.0766 C.ar    
  17 C17            5.8329    -2.3365    -0.0687 C.ar    
  18 H18           -0.9383    -0.5352     0.0081 H       
  19 H19            0.7945     4.0656     0.0163 H       
  20 H20            4.4320     2.0701    -0.0288 H       
  21 H21            4.3349    -0.3850    -0.0400 H       
  22 H22            2.5632    -2.6883    -0.0346 H       
  23 H23            3.5955    -4.8747    -0.0540 H       
  24 H24            5.6799    -6.1829    -0.0792 H       
  25 H25            7.8563    -5.0343    -0.0941 H       
  26 H26            7.9557    -2.5753    -0.0826 H       
  27 H27            5.8773    -1.2574    -0.0685 H       
@<TRIPOS>BOND
   1    1    2 ar
   2    1    6 ar
   3    2    3 ar
   4    2   18 1
   5    3    4 ar
   6    4    5 ar
   7    4   10 1
   8    5    6 ar
   9    5    9 1
  10    6    7 1
  11    7    8 1
  12    7   19 1
  13    8    9 2
  14    9   20 1
  15   10   11 1
  16   10   21 1
  17   11   12 1
  18   11   22 1
  19   12   13 ar
  20   12   17 ar
  21   13   14 ar
  22   13   23 1
  23   14   15 ar
  24   14   24 1
  25   15   16 ar
  26   15   25 1
  27   16   17 ar
  28   16   26 1
  29   17   27 1

#	End of record

