#	Name: ASD01410777
#	Creating user name:	WinNT
#	Creation time:	15. 06. 2019 19:18

#	Modifying user name:	WinNT
#	Modification time:	15. 06. 2019 19:18

#	Program:	/corina/corina34_cracker 3.40 0067  02.08.2006

@<TRIPOS>MOLECULE
ASD01410777
  74   77    0    0    0
SMALL
NO_CHARGES


@<TRIPOS>ATOM
   1 C1            -2.5299     3.3180    -0.7817 C.ar    
   2 C2            -2.1514     0.9501    -0.6238 C.ar    
   3 C3            -3.4746     0.7583    -0.2514 C.ar    
   4 C4            -4.3319     1.8627    -0.1318 C.ar    
   5 C5            -3.8496     3.1447    -0.4062 C.ar    
   6 O6            -2.0582     4.5661    -1.0435 O.3     
   7 C7            -1.8729     4.9179    -2.3406 C.ar    
   8 N8            -3.9473    -0.5260     0.0142 N.am    
   9 C9            -3.8150    -1.0510     1.2484 C.2     
  10 C10           -3.2330    -0.2197     2.3624 C.3     
  11 O11           -4.1645    -2.1925     1.4625 O.2     
  12 C12           -3.9209    -0.5800     3.6807 C.3     
  13 C13           -1.1420     0.3452     3.6080 C.3     
  14 C14           -1.8300    -0.0152     4.9263 C.3     
  15 C15           -3.3299     0.2640     4.8117 C.3     
  16 C16           -1.2390     0.8288     6.0573 C.3     
  17 N17           -2.0877     4.0298    -3.2974 N.ar    
  18 C18           -1.4650     6.2086    -2.6517 C.ar    
  19 C19           -1.2800     6.5549    -3.9790 C.ar    
  20 C20           -1.5108     5.5929    -4.9525 C.ar    
  21 C21           -1.9200     4.3303    -4.5710 C.ar    
  22 C22           -1.7330    -0.4989     2.4770 C.3     
  23 C23           -1.6827     2.2213    -0.8868 C.ar    
  24 C24           -4.5878    -1.3050    -1.0484 C.3     
  25 C25           -3.5451    -2.1123    -1.7778 C.ar    
  26 C26           -3.2342    -3.3887    -1.3466 C.ar    
  27 C27           -2.2786    -4.1307    -2.0135 C.ar    
  28 C28           -1.6308    -3.5941    -3.1167 C.ar    
  29 C29           -1.9445    -2.3132    -3.5474 C.ar    
  30 C30           -2.9049    -1.5774    -2.8804 C.ar    
  31 O31           -0.6901    -4.3219    -3.7742 O.3     
  32 C32           -0.5028    -5.6738    -3.3507 C.3     
  33 C33            0.0780    -6.4939    -4.5044 C.3     
  34 C34            0.4629    -5.7074    -2.1644 C.3     
  35 C35           -1.2275     7.2187    -1.5588 C.3     
  36 F36           -0.8269     8.4334    -2.1256 F       
  37 F37           -2.4094     7.4091    -0.8350 F       
  38 F38           -0.2257     6.7513    -0.7015 F       
  39 C39           -5.7389     1.6693     0.2626 C.2     
  40 O40           -6.1592     0.5511     0.4853 O.2     
  41 O41           -6.5591     2.7324     0.3763 O.3     
  42 H42           -1.4893     0.1018    -0.7165 H       
  43 H43           -4.5057     3.9987    -0.3250 H       
  44 H44           -3.3904     0.8373     2.1475 H       
  45 H45           -4.9895    -0.3811     3.5991 H       
  46 H46           -3.7634    -1.6369     3.8956 H       
  47 H47           -1.2995     1.4021     3.3931 H       
  48 H48           -0.0735     0.1463     3.6896 H       
  49 H49           -1.6725    -1.0721     5.1412 H       
  50 H50           -3.4874     1.3209     4.5968 H       
  51 H51           -3.8200     0.0073     5.7509 H       
  52 H52           -1.3965     1.8858     5.8424 H       
  53 H53           -1.7291     0.5721     6.9965 H       
  54 H54           -0.1704     0.6299     6.1389 H       
  55 H55           -0.9636     7.5511    -4.2510 H       
  56 H56           -1.3760     5.8305    -5.9974 H       
  57 H57           -2.1005     3.5780    -5.3245 H       
  58 H58           -1.5755    -1.5558     2.6919 H       
  59 H59           -1.2429    -0.2421     1.5378 H       
  60 H60           -0.6521     2.3646    -1.1762 H       
  61 H61           -5.3271    -1.9764    -0.6115 H       
  62 H62           -5.0794    -0.6293    -1.7484 H       
  63 H63           -3.7385    -3.8058    -0.4876 H       
  64 H64           -2.0359    -5.1275    -1.6762 H       
  65 H65           -1.4416    -1.8933    -4.4059 H       
  66 H66           -3.1495    -0.5802    -3.2153 H       
  67 H67           -1.4615    -6.0968    -3.0508 H       
  68 H68            1.0368    -6.0709    -4.8042 H       
  69 H69            0.2209    -7.5251    -4.1813 H       
  70 H70           -0.6099    -6.4699    -5.3495 H       
  71 H71            1.4217    -5.2844    -2.4642 H       
  72 H72            0.0491    -5.1232    -1.3424 H       
  73 H73            0.6058    -6.7386    -1.8413 H       
  74 H74           -7.4732     2.5557     0.6376 H       
@<TRIPOS>BOND
   1    1   23 ar
   2    1    6 1
   3    1    5 ar
   4    2    3 ar
   5    2   23 ar
   6    2   42 1
   7    3    4 ar
   8    3    8 1
   9    4    5 ar
  10    4   39 1
  11    5   43 1
  12    6    7 1
  13    7   18 ar
  14    7   17 ar
  15    8    9 am
  16    8   24 1
  17    9   11 2
  18    9   10 1
  19   10   12 1
  20   10   22 1
  21   10   44 1
  22   12   15 1
  23   12   45 1
  24   12   46 1
  25   13   14 1
  26   13   22 1
  27   13   47 1
  28   13   48 1
  29   14   15 1
  30   14   16 1
  31   14   49 1
  32   15   50 1
  33   15   51 1
  34   16   52 1
  35   16   53 1
  36   16   54 1
  37   17   21 ar
  38   18   19 ar
  39   18   35 1
  40   19   20 ar
  41   19   55 1
  42   20   21 ar
  43   20   56 1
  44   21   57 1
  45   22   58 1
  46   22   59 1
  47   23   60 1
  48   24   25 1
  49   24   61 1
  50   24   62 1
  51   25   26 ar
  52   25   30 ar
  53   26   27 ar
  54   26   63 1
  55   27   28 ar
  56   27   64 1
  57   28   29 ar
  58   28   31 1
  59   29   30 ar
  60   29   65 1
  61   30   66 1
  62   31   32 1
  63   32   33 1
  64   32   34 1
  65   32   67 1
  66   33   68 1
  67   33   69 1
  68   33   70 1
  69   34   71 1
  70   34   72 1
  71   34   73 1
  72   35   36 1
  73   35   37 1
  74   35   38 1
  75   39   40 2
  76   39   41 1
  77   41   74 1

#	End of record

