#	Name: ASD03430428
#	Creating user name:	WinNT
#	Creation time:	15. 06. 2019 20:41

#	Modifying user name:	WinNT
#	Modification time:	15. 06. 2019 20:41

#	Program:	/corina/corina34_cracker 3.40 0067  02.08.2006

@<TRIPOS>MOLECULE
ASD03430428
  57   62    0    0    0
SMALL
NO_CHARGES


@<TRIPOS>ATOM
   1 O1            -2.2772     2.5711    -0.1275 O.3     
   2 C2            -2.7611     1.3194    -0.1293 C.2     
   3 N3            -1.7406     0.4432    -0.0445 N.am    
   4 C4            -0.5583     1.1805     0.0132 C.ar    
   5 C5            -0.9243     2.5256    -0.0410 C.ar    
   6 C6             0.7782     0.8277     0.1066 C.ar    
   7 C7             1.7499     1.8153     0.1461 C.ar    
   8 C8             1.3842     3.1534     0.0921 C.ar    
   9 C9             0.0525     3.5077    -0.0012 C.ar    
  10 O10           -3.9383     1.0218    -0.1962 O.2     
  11 C11           -1.8529    -1.0173    -0.0175 C.3     
  12 O12            3.0625     1.4732     0.2383 O.3     
  13 N13            2.1076     6.3450    -0.6893 N.am    
  14 C14            2.3714     5.0934    -1.1010 C.2     
  15 C15            2.4444     4.2235     0.1359 C.3     
  16 C16            2.1827     5.1819     1.2749 C.ar    
  17 C17            2.1152     5.0174     2.6402 C.ar    
  18 C18            1.8536     6.1056     3.4543 C.ar    
  19 C19            1.6608     7.3545     2.8924 C.ar    
  20 C20            1.7279     7.5220     1.5249 C.ar    
  21 C21            1.9910     6.4310     0.6985 C.ar    
  22 O22            2.5222     4.7290    -2.2480 O.2     
  23 C23            1.9650     7.4890    -1.5932 C.3     
  24 C24            2.8486     8.6150    -1.1216 C.ar    
  25 C25            2.3828     9.9163    -1.1469 C.ar    
  26 C26            3.1933    10.9491    -0.7143 C.ar    
  27 C27            4.4695    10.6807    -0.2560 C.ar    
  28 C28            4.9351     9.3793    -0.2298 C.ar    
  29 C29            4.1230     8.3460    -0.6583 C.ar    
  30 C30            2.3705     7.0820    -2.9864 C.ar    
  31 C31            1.4486     7.1269    -4.0154 C.ar    
  32 C32            1.8205     6.7535    -5.2934 C.ar    
  33 C33            3.1145     6.3357    -5.5424 C.ar    
  34 C34            4.0366     6.2918    -4.5135 C.ar    
  35 C35            3.6659     6.6693    -3.2364 C.ar    
  36 H36            1.0619    -0.2135     0.1489 H       
  37 H37           -0.2275     4.5499    -0.0433 H       
  38 H38           -2.9033    -1.3021    -0.0774 H       
  39 H39           -1.3132    -1.4389    -0.8655 H       
  40 H40           -1.4257    -1.3974     0.9105 H       
  41 H41            3.4988     1.3538    -0.6164 H       
  42 H42            3.4338     3.7760     0.2302 H       
  43 H43            2.2660     4.0405     3.0752 H       
  44 H44            1.7997     5.9797     4.5256 H       
  45 H45            1.4563     8.2034     3.5279 H       
  46 H46            1.5762     8.5005     1.0936 H       
  47 H47            0.9265     7.8202    -1.5991 H       
  48 H48            1.3857    10.1260    -1.5050 H       
  49 H49            2.8296    11.9658    -0.7348 H       
  50 H50            5.1030    11.4877     0.0813 H       
  51 H51            5.9323     9.1697     0.1279 H       
  52 H52            4.4853     7.3289    -0.6344 H       
  53 H53            0.4376     7.4532    -3.8209 H       
  54 H54            1.1000     6.7878    -6.0972 H       
  55 H55            3.4049     6.0434    -6.5407 H       
  56 H56            5.0475     5.9651    -4.7080 H       
  57 H57            4.3873     6.6385    -2.4333 H       
@<TRIPOS>BOND
   1    1    2 1
   2    1    5 1
   3    2    3 am
   4    2   10 2
   5    3    4 1
   6    3   11 1
   7    4    5 ar
   8    4    6 ar
   9    5    9 ar
  10    6    7 ar
  11    6   36 1
  12    7    8 ar
  13    7   12 1
  14    8    9 ar
  15    8   15 1
  16    9   37 1
  17   11   38 1
  18   11   39 1
  19   11   40 1
  20   12   41 1
  21   13   14 am
  22   13   21 1
  23   13   23 1
  24   14   15 1
  25   14   22 2
  26   15   16 1
  27   15   42 1
  28   16   17 ar
  29   16   21 ar
  30   17   18 ar
  31   17   43 1
  32   18   19 ar
  33   18   44 1
  34   19   20 ar
  35   19   45 1
  36   20   21 ar
  37   20   46 1
  38   23   24 1
  39   23   30 1
  40   23   47 1
  41   24   25 ar
  42   24   29 ar
  43   25   26 ar
  44   25   48 1
  45   26   27 ar
  46   26   49 1
  47   27   28 ar
  48   27   50 1
  49   28   29 ar
  50   28   51 1
  51   29   52 1
  52   30   31 ar
  53   30   35 ar
  54   31   32 ar
  55   31   53 1
  56   32   33 ar
  57   32   54 1
  58   33   34 ar
  59   33   55 1
  60   34   35 ar
  61   34   56 1
  62   35   57 1

#	End of record

