#	Name: ASD04880196
#	Creating user name:	WinNT
#	Creation time:	15. 06. 2019 20:53

#	Modifying user name:	WinNT
#	Modification time:	15. 06. 2019 20:53

#	Program:	/corina/corina34_cracker 3.40 0067  02.08.2006

@<TRIPOS>MOLECULE
ASD04880196
  36   37    0    0    0
SMALL
NO_CHARGES


@<TRIPOS>ATOM
   1 C1            -0.0106     1.5407     0.0944 C.3     
   2 C2             0.0062     0.0004     0.0299 C.3     
   3 N3             1.4412    -0.3268     0.0241 N.am    
   4 N4             2.1724     0.8581     0.0777 N.2     
   5 C5             1.4531     1.9191     0.1182 C.2     
   6 O6             1.9315     3.1850     0.1735 O.3     
   7 C7             1.9624    -1.5687    -0.0247 C.2     
   8 O8             1.2305    -2.5382     0.0354 O.2     
   9 C9             3.4237    -1.7525    -0.1513 C.ar    
  10 C10            4.2528    -0.6501    -0.3638 C.ar    
  11 C11            5.6161    -0.8271    -0.4813 C.ar    
  12 C12            6.1631    -2.0940    -0.3890 C.ar    
  13 C13            5.3466    -3.1938    -0.1780 C.ar    
  14 C14            3.9805    -3.0287    -0.0530 C.ar    
  15 F15            5.8877    -4.4285    -0.0893 F       
  16 C16            3.3518     3.3418     0.1879 C.3     
  17 C17            3.7000     4.8303     0.2517 C.3     
  18 C18            5.2206     4.9981     0.2672 C.3     
  19 C19            5.5688     6.4866     0.3309 C.3     
  20 H20           -0.4984     1.9551    -0.7879 H       
  21 H21           -0.5083     1.8801     1.0028 H       
  22 H22           -0.4812    -0.4259     0.9068 H       
  23 H23           -0.4714    -0.3508    -0.8848 H       
  24 H24            3.8277     0.3401    -0.4366 H       
  25 H25            6.2578     0.0259    -0.6462 H       
  26 H26            7.2309    -2.2268    -0.4821 H       
  27 H27            3.3443    -3.8858     0.1114 H       
  28 H28            3.7645     2.8344     1.0599 H       
  29 H29            3.7744     2.9083    -0.7185 H       
  30 H30            3.2873     5.3376    -0.6203 H       
  31 H31            3.2773     5.2638     1.1581 H       
  32 H32            5.6333     4.4908     1.1391 H       
  33 H33            5.6433     4.5647    -0.6393 H       
  34 H34            5.1561     6.9940    -0.5411 H       
  35 H35            5.1462     6.9201     1.2373 H       
  36 H36            6.6522     6.6062     0.3419 H       
@<TRIPOS>BOND
   1    1    2 1
   2    1    5 1
   3    1   20 1
   4    1   21 1
   5    2    3 1
   6    2   22 1
   7    2   23 1
   8    3    4 1
   9    3    7 am
  10    4    5 2
  11    5    6 1
  12    6   16 1
  13    7    8 2
  14    7    9 1
  15    9   10 ar
  16    9   14 ar
  17   10   11 ar
  18   10   24 1
  19   11   12 ar
  20   11   25 1
  21   12   13 ar
  22   12   26 1
  23   13   14 ar
  24   13   15 1
  25   14   27 1
  26   16   17 1
  27   16   28 1
  28   16   29 1
  29   17   18 1
  30   17   30 1
  31   17   31 1
  32   18   19 1
  33   18   32 1
  34   18   33 1
  35   19   34 1
  36   19   35 1
  37   19   36 1

#	End of record

