#	Name: ASD03090384
#	Creating user name:	WinNT
#	Creation time:	15. 06. 2019 20:28

#	Modifying user name:	WinNT
#	Modification time:	15. 06. 2019 20:28

#	Program:	/corina/corina34_cracker 3.40 0067  02.08.2006

@<TRIPOS>MOLECULE
ASD03090384
  39   41    0    0    0
SMALL
NO_CHARGES


@<TRIPOS>ATOM
   1 C1            -0.0179     1.4719     0.0101 C.2     
   2 C2             0.0021    -0.0041     0.0020 C.ar    
   3 C3             1.2203    -0.6995    -0.0133 C.ar    
   4 C4             1.1875    -2.0786    -0.0205 C.ar    
   5 C5            -0.0424    -2.7299    -0.0123 C.ar    
   6 N6            -1.1755    -2.0450     0.0022 N.ar    
   7 C7            -1.1903    -0.7285     0.0153 C.ar    
   8 O8             1.0266     2.0941     0.0035 O.2     
   9 N9            -1.1942     2.1299     0.0193 N.am    
  10 C10           -1.2140     3.5947     0.0273 C.3     
  11 N11           -6.5411     5.3988     0.3357 N.pl3   
  12 C12           -6.6944     5.4453     1.6946 C.2     
  13 C13           -5.5590     5.0575     2.2967 C.2     
  14 C14           -4.6003     4.7363     1.2367 C.ar    
  15 C15           -3.2778     4.2884     1.2273 C.ar    
  16 C16           -2.6415     4.0777     0.0367 C.ar    
  17 C17           -3.2993     4.3054    -1.1644 C.ar    
  18 C18           -4.6038     4.7478    -1.1782 C.ar    
  19 C19           -5.2711     4.9690     0.0224 C.ar    
  20 O20           -0.0809    -4.0843    -0.0197 O.3     
  21 C21           -1.3719    -4.6967    -0.0107 C.3     
  22 C22           -1.2146    -6.2186    -0.0209 C.3     
  23 H23            2.1607    -0.1683    -0.0198 H       
  24 H24            2.1060    -2.6466    -0.0327 H       
  25 H25           -2.1344    -0.2043     0.0317 H       
  26 H26           -2.0275     1.6335     0.0205 H       
  27 H27           -0.7010     3.9602     0.9169 H       
  28 H28           -0.7094     3.9698    -0.8630 H       
  29 H29           -7.2264     5.6301    -0.3107 H       
  30 H30           -7.5953     5.7493     2.2068 H       
  31 H31           -5.3854     4.9942     3.3608 H       
  32 H32           -2.7594     4.1100     2.1578 H       
  33 H33           -2.7830     4.1342    -2.0975 H       
  34 H34           -5.1068     4.9223    -2.1178 H       
  35 H35           -1.9117    -4.3933     0.8863 H       
  36 H36           -1.9290    -4.3831    -0.8935 H       
  37 H37           -0.6748    -6.5220    -0.9180 H       
  38 H38           -0.6575    -6.5322     0.8619 H       
  39 H39           -2.1994    -6.6857    -0.0141 H       
@<TRIPOS>BOND
   1    1    2 1
   2    1    8 2
   3    1    9 am
   4    2    3 ar
   5    2    7 ar
   6    3    4 ar
   7    3   23 1
   8    4    5 ar
   9    4   24 1
  10    5    6 ar
  11    5   20 1
  12    6    7 ar
  13    7   25 1
  14    9   10 1
  15    9   26 1
  16   10   16 1
  17   10   27 1
  18   10   28 1
  19   11   12 1
  20   11   19 1
  21   11   29 1
  22   12   13 2
  23   12   30 1
  24   13   14 1
  25   13   31 1
  26   14   15 ar
  27   14   19 ar
  28   15   16 ar
  29   15   32 1
  30   16   17 ar
  31   17   18 ar
  32   17   33 1
  33   18   19 ar
  34   18   34 1
  35   20   21 1
  36   21   22 1
  37   21   35 1
  38   21   36 1
  39   22   37 1
  40   22   38 1
  41   22   39 1

#	End of record

