#	Name: ASD01028148
#	Creating user name:	WinNT
#	Creation time:	15. 06. 2019 18:56

#	Modifying user name:	WinNT
#	Modification time:	15. 06. 2019 18:56

#	Program:	/corina/corina34_cracker 3.40 0067  02.08.2006

@<TRIPOS>MOLECULE
ASD01028148
  56   58    0    0    0
SMALL
NO_CHARGES


@<TRIPOS>ATOM
   1 S1            -0.0209     1.6901     0.0113 S.3     
   2 N2             0.0021    -0.0041     0.0020 N.2     
   3 C3             1.2407    -0.3901    -0.0119 C.2     
   4 C4             2.2145     0.6130    -0.0158 C.2     
   5 C5             1.6863     1.8985    -0.0038 C.2     
   6 C6             3.6545     0.3355    -0.0310 C.2     
   7 O7             4.2420     0.2265    -1.0912 O.2     
   8 N8             4.3272     0.2013     1.1291 N.am    
   9 N9             2.3861     3.0938    -0.0041 N.am    
  10 C10            1.7195     4.2650     0.0090 C.2     
  11 O11            0.5038     4.2724     0.0211 O.2     
  12 N12            2.4005     5.4281     0.0088 N.am    
  13 C13            1.6758     6.7012     0.0231 C.3     
  14 C14            2.6771     7.8581     0.0196 C.3     
  15 C15            1.9203     9.1877     0.0346 C.3     
  16 C16            2.9217    10.3445     0.0311 C.3     
  17 N17            2.1950    11.6211     0.0454 N.3     
  18 C18            3.1141    12.7496     0.2817 C.3     
  19 C19            2.9513    13.7271    -0.9013 C.3     
  20 C20            1.5430    13.3792    -1.4510 C.3     
  21 C21            1.4934    11.8458    -1.2364 C.3     
  22 O22            1.5754    -1.7062    -0.0217 O.3     
  23 C23            0.5014    -2.6487    -0.0166 C.3     
  24 C24            1.0609    -4.0480    -0.0289 C.ar    
  25 C25            1.3291    -4.6970     1.1640 C.ar    
  26 C26            1.8432    -5.9825     1.1519 C.ar    
  27 C27            2.0892    -6.6179    -0.0516 C.ar    
  28 C28            1.8220    -5.9699    -1.2438 C.ar    
  29 C29            1.3016    -4.6869    -1.2331 C.ar    
  30 F30            1.0349    -4.0562    -2.3977 F       
  31 F31            1.0896    -4.0761     2.3397 F       
  32 Br32           2.7920    -8.3734    -0.0671 Br      
  33 H33            3.8590     0.2882     1.9741 H       
  34 H34            5.2796     0.0178     1.1190 H       
  35 H35            3.3561     3.0879    -0.0138 H       
  36 H36            3.3704     5.4222    -0.0009 H       
  37 H37            1.0407     6.7678    -0.8603 H       
  38 H38            1.0584     6.7578     0.9196 H       
  39 H39            3.3122     7.7915     0.9030 H       
  40 H40            3.2946     7.8015    -0.8769 H       
  41 H41            1.2852     9.2542    -0.8488 H       
  42 H42            1.3029     9.2443     0.9310 H       
  43 H43            3.5567    10.2780     0.9145 H       
  44 H44            3.5391    10.2879    -0.8654 H       
  45 H45            2.8547    13.2501     1.2146 H       
  46 H46            4.1415    12.3882     0.3254 H       
  47 H47            2.9855    14.7601    -0.5551 H       
  48 H48            3.7155    13.5475    -1.6576 H       
  49 H49            0.7644    13.8794    -0.8751 H       
  50 H50            1.4644    13.6280    -2.5093 H       
  51 H51            2.0102    11.3323    -2.0470 H       
  52 H52            0.4601    11.5054    -1.1681 H       
  53 H53           -0.1024    -2.5068     0.8797 H       
  54 H54           -0.1188    -2.4977    -0.9001 H       
  55 H55            2.0525    -6.4890     2.0825 H       
  56 H56            2.0150    -6.4664    -2.1832 H       
@<TRIPOS>BOND
   1    1    2 1
   2    1    5 1
   3    2    3 2
   4    3    4 1
   5    3   22 1
   6    4    5 2
   7    4    6 1
   8    5    9 1
   9    6    7 2
  10    6    8 am
  11    8   33 1
  12    8   34 1
  13    9   10 am
  14    9   35 1
  15   10   11 2
  16   10   12 am
  17   12   13 1
  18   12   36 1
  19   13   14 1
  20   13   37 1
  21   13   38 1
  22   14   15 1
  23   14   39 1
  24   14   40 1
  25   15   16 1
  26   15   41 1
  27   15   42 1
  28   16   17 1
  29   16   43 1
  30   16   44 1
  31   17   18 1
  32   17   21 1
  33   18   19 1
  34   18   45 1
  35   18   46 1
  36   19   20 1
  37   19   47 1
  38   19   48 1
  39   20   21 1
  40   20   49 1
  41   20   50 1
  42   21   51 1
  43   21   52 1
  44   22   23 1
  45   23   24 1
  46   23   53 1
  47   23   54 1
  48   24   25 ar
  49   24   29 ar
  50   25   26 ar
  51   25   31 1
  52   26   27 ar
  53   26   55 1
  54   27   28 ar
  55   27   32 1
  56   28   29 ar
  57   28   56 1
  58   29   30 1

#	End of record

