#	Name: ASD05720009
#	Creating user name:	WinNT
#	Creation time:	15. 06. 2019 21:01

#	Modifying user name:	WinNT
#	Modification time:	15. 06. 2019 21:01

#	Program:	/corina/corina34_cracker 3.40 0067  02.08.2006

@<TRIPOS>MOLECULE
ASD05720009
  48   52    0    0    0
SMALL
NO_CHARGES


@<TRIPOS>ATOM
   1 O1            -0.1051     1.1934     0.1307 O.3     
   2 C2             0.0754    -0.1221    -0.0314 C.2     
   3 N3             1.3620    -0.4855    -0.1221 N.am    
   4 C4             2.2047     0.7150    -0.0116 C.3     
   5 C5             1.1895     1.8612     0.1615 C.3     
   6 O6            -0.8433    -0.9150    -0.0902 O.2     
   7 C7             3.0272     0.9135    -1.2864 C.3     
   8 C8             2.0855     1.0575    -2.4837 C.3     
   9 C9             3.8786     2.1776    -1.1523 C.3     
  10 C10            3.5733    -3.2497    -0.6450 C.2     
  11 N11            3.1115    -2.0063    -0.4803 N.2     
  12 C12            1.8244    -1.7839    -0.2919 C.2     
  13 C13            0.9186    -2.8638    -0.2625 C.2     
  14 C14            1.3824    -4.1232    -0.4288 C.2     
  15 N15            2.7213    -4.3220    -0.6220 N.pl3   
  16 N16            3.4814    -5.4803    -0.8194 N.2     
  17 C17            4.7423    -5.1519    -0.9587 C.2     
  18 C18            4.8601    -3.7599    -0.8631 C.2     
  19 C19            6.1100    -2.9745    -0.9707 C.ar    
  20 C20            7.2277    -3.3342    -0.2156 C.ar    
  21 C21            8.3912    -2.6027    -0.3168 C.ar    
  22 C22            8.4515    -1.5025    -1.1742 C.ar    
  23 C23            7.3347    -1.1437    -1.9282 C.ar    
  24 C24            6.1732    -1.8774    -1.8316 C.ar    
  25 N25           11.2040     0.7673    -1.8446 N.pl3   
  26 N26            9.8833     0.3371    -2.0515 N.2     
  27 C27            9.7034    -0.7150    -1.2827 C.2     
  28 N28           10.8391    -0.9571    -0.6137 N.2     
  29 C29           11.7437    -0.0738    -0.9443 C.2     
  30 Cl30           9.7815    -3.0488     0.6222 Cl      
  31 H31            2.8567     0.6463     0.8591 H       
  32 H32            1.2722     2.5723    -0.6605 H       
  33 H33            1.3383     2.3623     1.1180 H       
  34 H34            3.6774     0.0517    -1.4371 H       
  35 H35            1.3797     1.8666    -2.2956 H       
  36 H36            2.6666     1.2828    -3.3779 H       
  37 H37            1.5393     0.1257    -2.6304 H       
  38 H38            4.6089     2.0408    -0.3548 H       
  39 H39            4.3978     2.3673    -2.0918 H       
  40 H40            3.2358     3.0252    -0.9149 H       
  41 H41           -0.1356    -2.6870    -0.1083 H       
  42 H42            0.7030    -4.9625    -0.4088 H       
  43 H43            5.5567    -5.8416    -1.1241 H       
  44 H44            7.1805    -4.1851     0.4478 H       
  45 H45            7.3818    -0.2923    -2.5910 H       
  46 H46            5.3100    -1.6017    -2.4192 H       
  47 H47           11.6423     1.5205    -2.2704 H       
  48 H48           12.7522    -0.0273    -0.5605 H       
@<TRIPOS>BOND
   1    1    2 1
   2    1    5 1
   3    2    3 am
   4    2    6 2
   5    3    4 1
   6    3   12 1
   7    4    5 1
   8    4    7 1
   9    4   31 1
  10    5   32 1
  11    5   33 1
  12    7    8 1
  13    7    9 1
  14    7   34 1
  15    8   35 1
  16    8   36 1
  17    8   37 1
  18    9   38 1
  19    9   39 1
  20    9   40 1
  21   10   11 1
  22   10   15 1
  23   10   18 2
  24   11   12 2
  25   12   13 1
  26   13   14 2
  27   13   41 1
  28   14   15 1
  29   14   42 1
  30   15   16 1
  31   16   17 2
  32   17   18 1
  33   17   43 1
  34   18   19 1
  35   19   20 ar
  36   19   24 ar
  37   20   21 ar
  38   20   44 1
  39   21   22 ar
  40   21   30 1
  41   22   23 ar
  42   22   27 1
  43   23   24 ar
  44   23   45 1
  45   24   46 1
  46   25   26 1
  47   25   29 1
  48   25   47 1
  49   26   27 2
  50   27   28 1
  51   28   29 2
  52   29   48 1

#	End of record

