#	Name: ASD01418056
#	Creating user name:	WinNT
#	Creation time:	15. 06. 2019 19:20

#	Modifying user name:	WinNT
#	Modification time:	15. 06. 2019 19:20

#	Program:	/corina/corina34_cracker 3.40 0067  02.08.2006

@<TRIPOS>MOLECULE
ASD01418056
  79   86    0    0    0
SMALL
NO_CHARGES


@<TRIPOS>ATOM
   1 C1            -1.5955    -0.2464     1.9584 C.ar    
   2 C2            -1.8923    -1.5680     1.6063 C.ar    
   3 C3            -3.0003    -1.8949     0.8713 C.ar    
   4 C4            -3.8369    -0.8342     0.4833 C.ar    
   5 C5            -3.5580     0.4969     0.8553 C.ar    
   6 C6            -2.4301     0.8209     1.5944 C.ar    
   7 C7            -5.0074    -0.7852    -0.2832 C.2     
   8 C8            -5.4908     0.5012    -0.2628 C.2     
   9 N9            -4.5812     1.3019     0.3677 N.pl3   
  10 C10           -6.8218     0.8311    -0.8176 C.ar    
  11 C11           -7.8371    -0.1269    -0.7309 C.ar    
  12 C12           -9.0774     0.0708    -1.2916 C.ar    
  13 C13           -9.3521     1.2714    -1.9253 C.ar    
  14 C14           -8.3870     2.2538    -1.9623 C.ar    
  15 C15           -7.1256     2.0676    -1.3996 C.ar    
  16 C16           -5.5401    -1.9764    -1.0370 C.3     
  17 C17           -4.4978    -2.4435    -2.0551 C.3     
  18 C18           -5.0386    -3.6529    -2.8204 C.3     
  19 C19           -5.3355    -4.7872    -1.8375 C.3     
  20 C20           -6.3778    -4.3202    -0.8195 C.3     
  21 C21           -5.8370    -3.1108    -0.0542 C.3     
  22 C22           -0.3758     0.0309     2.7381 C.2     
  23 O23            0.4360    -0.9815     3.1021 O.3     
  24 C24           -4.4786     2.7398     0.5913 C.3     
  25 C25           -6.2112     3.1918    -1.4113 C.3     
  26 C26           -5.4305     3.6231    -0.1932 C.3     
  27 C27           -4.9123     3.7534    -1.6672 C.3     
  28 C28           -5.8790     4.8814     0.5031 C.2     
  29 N29           -4.9872     5.8537     0.7785 N.am    
  30 O30           -7.0427     5.0196     0.8158 O.2     
  31 C31           -3.5167     5.8418     0.5758 C.3     
  32 C32           -5.2369     7.1997     1.3523 C.3     
  33 C33           -2.8721     5.7647     1.9697 C.3     
  34 N34           -3.2162     6.9790     2.7228 N.3     
  35 C35           -4.6760     7.1885     2.7840 C.3     
  36 C36           -4.3453     8.1394     0.5065 C.3     
  37 C37           -3.2071     7.2408    -0.0074 C.3     
  38 C38           -2.6289     6.9477     4.0689 C.3     
  39 F39          -10.5546     1.4769    -2.5039 F       
  40 O40           -0.1021     1.1723     3.0527 O.2     
  41 C41            1.6193    -0.6345     3.8686 C.3     
  42 H42           -1.2272    -2.3571     1.9254 H       
  43 H43           -3.2198    -2.9187     0.6091 H       
  44 H44           -2.2012     1.8400     1.8690 H       
  45 H45           -7.6908    -1.0316    -0.1579 H       
  46 H46           -9.8263    -0.7054    -1.2381 H       
  47 H47           -8.6193     3.1937    -2.4418 H       
  48 H48           -6.4564    -1.6972    -1.5572 H       
  49 H49           -4.2863    -1.6353    -2.7553 H       
  50 H50           -3.5815    -2.7227    -1.5349 H       
  51 H51           -5.9549    -3.3737    -3.3405 H       
  52 H52           -4.2961    -3.9856    -3.5457 H       
  53 H53           -5.7208    -5.6489    -2.3828 H       
  54 H54           -4.4192    -5.0665    -1.3174 H       
  55 H55           -7.2941    -4.0410    -1.3396 H       
  56 H56           -6.5893    -5.1283    -0.1193 H       
  57 H57           -4.9207    -3.3900     0.4660 H       
  58 H58           -6.5796    -2.7781     0.6711 H       
  59 H59           -4.6285     2.9323     1.6539 H       
  60 H60           -3.4586     3.0444     0.3417 H       
  61 H61           -6.8485     4.0115    -1.7405 H       
  62 H62           -4.1202     3.0760    -1.9869 H       
  63 H63           -4.8722     4.7549    -2.0985 H       
  64 H64           -3.1934     5.0293    -0.0749 H       
  65 H65           -6.2912     7.4748     1.3234 H       
  66 H66           -3.2488     4.8888     2.4979 H       
  67 H67           -1.7893     5.6933     1.8675 H       
  68 H68           -4.8910     8.1414     3.2676 H       
  69 H69           -5.1362     6.3784     3.3498 H       
  70 H70           -4.9111     8.5482    -0.3307 H       
  71 H71           -3.9462     8.9431     1.1252 H       
  72 H72           -2.2445     7.5998     0.3567 H       
  73 H73           -3.2142     7.2084    -1.0969 H       
  74 H74           -1.5437     6.8808     3.9904 H       
  75 H75           -2.8990     7.8578     4.6044 H       
  76 H76           -3.0080     6.0812     4.6107 H       
  77 H77            2.2420     0.0458     3.2877 H       
  78 H78            1.3209    -0.1497     4.7981 H       
  79 H79            2.1834    -1.5392     4.0955 H       
@<TRIPOS>BOND
   1    1    2 ar
   2    1   22 1
   3    1    6 ar
   4    2    3 ar
   5    2   42 1
   6    3    4 ar
   7    3   43 1
   8    4    5 ar
   9    4    7 1
  10    5    6 ar
  11    5    9 1
  12    6   44 1
  13    7    8 2
  14    7   16 1
  15    8    9 1
  16    8   10 1
  17    9   24 1
  18   10   11 ar
  19   10   15 ar
  20   11   12 ar
  21   11   45 1
  22   12   13 ar
  23   12   46 1
  24   13   14 ar
  25   13   39 1
  26   14   15 ar
  27   14   47 1
  28   15   25 1
  29   16   17 1
  30   16   21 1
  31   16   48 1
  32   17   18 1
  33   17   49 1
  34   17   50 1
  35   18   19 1
  36   18   51 1
  37   18   52 1
  38   19   20 1
  39   19   53 1
  40   19   54 1
  41   20   21 1
  42   20   55 1
  43   20   56 1
  44   21   57 1
  45   21   58 1
  46   22   23 1
  47   22   40 2
  48   23   41 1
  49   24   26 1
  50   24   59 1
  51   24   60 1
  52   25   26 1
  53   25   27 1
  54   25   61 1
  55   26   27 1
  56   26   28 1
  57   27   62 1
  58   27   63 1
  59   28   29 am
  60   28   30 2
  61   29   31 1
  62   29   32 1
  63   31   33 1
  64   31   37 1
  65   31   64 1
  66   32   35 1
  67   32   36 1
  68   32   65 1
  69   33   34 1
  70   33   66 1
  71   33   67 1
  72   34   35 1
  73   34   38 1
  74   35   68 1
  75   35   69 1
  76   36   37 1
  77   36   70 1
  78   36   71 1
  79   37   72 1
  80   37   73 1
  81   38   74 1
  82   38   75 1
  83   38   76 1
  84   41   77 1
  85   41   78 1
  86   41   79 1

#	End of record

