#	Name: ASD03092328
#	Creating user name:	WinNT
#	Creation time:	15. 06. 2019 20:32

#	Modifying user name:	WinNT
#	Modification time:	15. 06. 2019 20:32

#	Program:	/corina/corina34_cracker 3.40 0067  02.08.2006

@<TRIPOS>MOLECULE
ASD03092328
  59   62    0    0    0
SMALL
NO_CHARGES


@<TRIPOS>ATOM
   1 C1            -0.0269     1.2767    -0.7465 C.3     
   2 C2            -0.0443    -0.2393    -0.9518 C.3     
   3 C3             1.2863     0.5157    -0.9391 C.3     
   4 C4            -0.5052     2.1388    -1.8863 C.2     
   5 O5            -0.8846     1.6252    -2.9174 O.2     
   6 N6            -0.5113     3.4806    -1.7598 N.am    
   7 C7            -0.3392     1.8034     0.6557 C.3     
   8 C8            -0.9762     4.3187    -2.8678 C.3     
   9 S9            -1.3861     8.1062    -1.6494 S.3     
  10 C10            0.1784     7.7145    -2.2159 C.2     
  11 N11            0.2241     6.4712    -2.5901 N.2     
  12 C12           -0.8827     5.7702    -2.4734 C.2     
  13 C13           -1.9274     6.4607    -1.9706 C.2     
  14 C14           -5.6651     6.0984    -1.9220 C.ar    
  15 C15           -4.4177     6.6307    -2.1659 C.ar    
  16 C16           -3.2840     5.9308    -1.7315 C.ar    
  17 C17           -3.4745     4.7135    -1.0641 C.ar    
  18 C18           -4.7588     4.2562    -0.8629 C.ar    
  19 N19           -5.7996     4.9476    -1.2893 N.ar    
  20 C20           -4.9783     2.9485    -0.1467 C.3     
  21 C21           -6.8931     6.8435    -2.3781 C.3     
  22 N22            1.2434     8.5953    -2.2687 N.3     
  23 C23            0.8544     9.9227    -1.7705 C.3     
  24 C24            2.0423    10.8795    -1.9021 C.3     
  25 O25            3.1619    10.3418    -1.1930 O.3     
  26 C26            3.5680     9.0499    -1.6527 C.3     
  27 C27            2.3955     8.0746    -1.5186 C.3     
  28 C28            4.7442     8.5539    -0.8092 C.3     
  29 C29            1.6696    12.2409    -1.3118 C.3     
  30 H30           -0.2782    -0.8615    -0.0880 H       
  31 H31           -0.4017    -0.6132    -1.9113 H       
  32 H32            1.8044     0.6386    -1.8902 H       
  33 H33            1.9279     0.3902    -0.0669 H       
  34 H34           -0.2078     3.8915    -0.9352 H       
  35 H35            0.3903     1.4085     1.3629 H       
  36 H36           -0.2910     2.8923     0.6539 H       
  37 H37           -1.3393     1.4844     0.9492 H       
  38 H38           -0.3540     4.1397    -3.7447 H       
  39 H39           -2.0120     4.0715    -3.1006 H       
  40 H40           -4.3152     7.5725    -2.6844 H       
  41 H41           -2.6278     4.1422    -0.7132 H       
  42 H42           -5.0679     3.1314     0.9242 H       
  43 H43           -5.8929     2.4825    -0.5134 H       
  44 H44           -4.1330     2.2860    -0.3327 H       
  45 H45           -7.1544     6.5293    -3.3886 H       
  46 H46           -7.7215     6.6255    -1.7041 H       
  47 H47           -6.6915     7.9147    -2.3715 H       
  48 H48            0.0164    10.3001    -2.3565 H       
  49 H49            0.5622     9.8471    -0.7231 H       
  50 H50            2.3003    10.9968    -2.9546 H       
  51 H51            3.8704     9.1140    -2.6980 H       
  52 H52            2.1280     7.9694    -0.4672 H       
  53 H53            2.6825     7.1029    -1.9207 H       
  54 H54            4.4400     8.4884     0.2354 H       
  55 H55            5.0532     7.5693    -1.1600 H       
  56 H56            5.5772     9.2507    -0.9021 H       
  57 H57            1.4137    12.1226    -0.2588 H       
  58 H58            2.5157    12.9216    -1.4057 H       
  59 H59            0.8139    12.6484    -1.8501 H       
@<TRIPOS>BOND
   1    1    2 1
   2    1    3 1
   3    1    4 1
   4    1    7 1
   5    2    3 1
   6    2   30 1
   7    2   31 1
   8    3   32 1
   9    3   33 1
  10    4    5 2
  11    4    6 am
  12    6    8 1
  13    6   34 1
  14    7   35 1
  15    7   36 1
  16    7   37 1
  17    8   12 1
  18    8   38 1
  19    8   39 1
  20    9   10 1
  21    9   13 1
  22   10   11 2
  23   10   22 1
  24   11   12 1
  25   12   13 2
  26   13   16 1
  27   14   15 ar
  28   14   19 ar
  29   14   21 1
  30   15   16 ar
  31   15   40 1
  32   16   17 ar
  33   17   18 ar
  34   17   41 1
  35   18   19 ar
  36   18   20 1
  37   20   42 1
  38   20   43 1
  39   20   44 1
  40   21   45 1
  41   21   46 1
  42   21   47 1
  43   22   23 1
  44   22   27 1
  45   23   24 1
  46   23   48 1
  47   23   49 1
  48   24   25 1
  49   24   29 1
  50   24   50 1
  51   25   26 1
  52   26   27 1
  53   26   28 1
  54   26   51 1
  55   27   52 1
  56   27   53 1
  57   28   54 1
  58   28   55 1
  59   28   56 1
  60   29   57 1
  61   29   58 1
  62   29   59 1

#	End of record

