#	Name: ASD01908090
#	Creating user name:	WinNT
#	Creation time:	15. 06. 2019 19:54

#	Modifying user name:	WinNT
#	Modification time:	15. 06. 2019 19:54

#	Program:	/corina/corina34_cracker 3.40 0067  02.08.2006

@<TRIPOS>MOLECULE
ASD01908090
  31   32    0    0    0
SMALL
NO_CHARGES


@<TRIPOS>ATOM
   1 C1            -0.0144     1.2095     0.0087 C.2     
   2 O2             0.0021    -0.0041     0.0020 O.2     
   3 N3             3.3878     2.4512    -0.0161 N.pl3   
   4 N4             2.6612     3.6468    -0.0027 N.2     
   5 C5             1.3873     3.3689     0.0074 C.2     
   6 C6             1.2471     1.9609     0.0007 C.2     
   7 C7             2.5230     1.4256    -0.0140 C.2     
   8 C8             2.8760    -0.0394    -0.0263 C.3     
   9 F9             2.9979    -0.5007     1.2888 F       
  10 F10            1.8685    -0.7564    -0.6805 F       
  11 F11            4.0893    -0.2210    -0.6987 F       
  12 C12            4.8483     2.3383    -0.0356 C.3     
  13 C13            5.3676     2.2943     1.3784 C.ar    
  14 C14            5.5131     1.0796     2.0227 C.ar    
  15 C15            5.9889     1.0366     3.3189 C.ar    
  16 C16            6.3210     2.2135     3.9741 C.ar    
  17 C17            6.1742     3.4310     3.3254 C.ar    
  18 C18            5.7032     3.4682     2.0272 C.ar    
  19 O19            6.7889     2.1738     5.2494 O.3     
  20 C20            7.1108     3.4243     5.8615 C.3     
  21 Cl21          -1.5294     2.0569     0.0205 Cl      
  22 H22            0.5808     4.0871     0.0192 H       
  23 H23            5.1351     1.4248    -0.5566 H       
  24 H24            5.2725     3.1995    -0.5518 H       
  25 H25            5.2541     0.1637     1.5124 H       
  26 H26            6.1020     0.0876     3.8219 H       
  27 H27            6.4320     4.3485     3.8333 H       
  28 H28            5.5933     4.4154     1.5201 H       
  29 H29            7.8857     3.9244     5.2806 H       
  30 H30            6.2203     4.0520     5.8956 H       
  31 H31            7.4718     3.2504     6.8752 H       
@<TRIPOS>BOND
   1    1    2 2
   2    1    6 1
   3    1   21 1
   4    3    4 1
   5    3    7 1
   6    3   12 1
   7    4    5 2
   8    5    6 1
   9    5   22 1
  10    6    7 2
  11    7    8 1
  12    8    9 1
  13    8   10 1
  14    8   11 1
  15   12   13 1
  16   12   23 1
  17   12   24 1
  18   13   14 ar
  19   13   18 ar
  20   14   15 ar
  21   14   25 1
  22   15   16 ar
  23   15   26 1
  24   16   17 ar
  25   16   19 1
  26   17   18 ar
  27   17   27 1
  28   18   28 1
  29   19   20 1
  30   20   29 1
  31   20   30 1
  32   20   31 1

#	End of record

