#	Name: ASD01812328
#	Creating user name:	WinNT
#	Creation time:	15. 06. 2019 19:28

#	Modifying user name:	WinNT
#	Modification time:	15. 06. 2019 19:28

#	Program:	/corina/corina34_cracker 3.40 0067  02.08.2006

@<TRIPOS>MOLECULE
ASD01812328
  50   53    0    0    0
SMALL
NO_CHARGES


@<TRIPOS>ATOM
   1 C1            -0.0168     1.3897     0.0097 C.ar    
   2 C2             0.0021    -0.0041     0.0020 C.ar    
   3 C3             1.1796    -0.6877    -0.0124 C.ar    
   4 C4             2.3927     0.0187    -0.0202 C.ar    
   5 C5             2.3768     1.4381    -0.0129 C.ar    
   6 C6             1.1385     2.1078     0.0025 C.ar    
   7 C7             3.6297    -0.6529    -0.0346 C.ar    
   8 C8             4.7711     0.0956    -0.0411 C.ar    
   9 C9             4.6871     1.4959    -0.0333 C.ar    
  10 N10            3.5238     2.1168    -0.0202 N.ar    
  11 C11            5.9353     2.2963    -0.0400 C.2     
  12 O12            7.0146     1.7386    -0.0521 O.2     
  13 N13            5.8725     3.6426    -0.0327 N.am    
  14 C14            7.1057     4.4335    -0.0393 C.3     
  15 C15            3.6922    -2.1586    -0.0422 C.3     
  16 C16            6.8345     5.8062     0.5796 C.3     
  17 C17            8.1224     6.6321     0.5727 C.3     
  18 C18            8.6072     6.8088    -0.8677 C.3     
  19 C19            8.8784     5.4361    -1.4865 C.3     
  20 C20            7.5905     4.6102    -1.4796 C.3     
  21 O21            5.8312     6.4819    -0.1812 O.3     
  22 C22            3.5763    -2.6591    -1.4590 C.ar    
  23 C23            4.7118    -2.8422    -2.2336 C.ar    
  24 C24            4.5580    -3.3041    -3.5314 C.ar    
  25 C25            3.2855    -3.5653    -4.0074 C.ar    
  26 N26            2.2273    -3.3792    -3.2409 N.ar    
  27 C27            2.3377    -2.9464    -2.0001 C.ar    
  28 Cl28           3.0784    -4.1438    -5.6310 Cl      
  29 H29           -0.9643     1.9080     0.0170 H       
  30 H30           -0.9302    -0.5493     0.0080 H       
  31 H31            1.1803    -1.7677    -0.0175 H       
  32 H32            1.1059     3.1873     0.0079 H       
  33 H33            5.7363    -0.3889    -0.0518 H       
  34 H34            5.0108     4.0879    -0.0231 H       
  35 H35            7.8710     3.9180     0.5410 H       
  36 H36            4.6417    -2.4850     0.3819 H       
  37 H37            2.8716    -2.5593     0.5529 H       
  38 H38            6.4891     5.6803     1.6057 H       
  39 H39            7.9292     7.6101     1.0136 H       
  40 H40            8.8877     6.1167     1.1530 H       
  41 H41            7.8419     7.3243    -1.4480 H       
  42 H42            9.5247     7.3973    -0.8726 H       
  43 H43            9.2238     5.5620    -2.5127 H       
  44 H44            9.6437     4.9207    -0.9062 H       
  45 H45            7.7837     3.6322    -1.9206 H       
  46 H46            6.8252     5.1256    -2.0600 H       
  47 H47            5.6083     7.3609     0.1547 H       
  48 H48            5.6929    -2.6295    -1.8352 H       
  49 H49            5.4205    -3.4578    -4.1630 H       
  50 H50            1.4489    -2.8064    -1.4027 H       
@<TRIPOS>BOND
   1    1    2 ar
   2    1    6 ar
   3    1   29 1
   4    2    3 ar
   5    2   30 1
   6    3    4 ar
   7    3   31 1
   8    4    5 ar
   9    4    7 ar
  10    5    6 ar
  11    5   10 ar
  12    6   32 1
  13    7    8 ar
  14    7   15 1
  15    8    9 ar
  16    8   33 1
  17    9   10 ar
  18    9   11 1
  19   11   12 2
  20   11   13 am
  21   13   14 1
  22   13   34 1
  23   14   16 1
  24   14   20 1
  25   14   35 1
  26   15   22 1
  27   15   36 1
  28   15   37 1
  29   16   17 1
  30   16   21 1
  31   16   38 1
  32   17   18 1
  33   17   39 1
  34   17   40 1
  35   18   19 1
  36   18   41 1
  37   18   42 1
  38   19   20 1
  39   19   43 1
  40   19   44 1
  41   20   45 1
  42   20   46 1
  43   21   47 1
  44   22   23 ar
  45   22   27 ar
  46   23   24 ar
  47   23   48 1
  48   24   25 ar
  49   24   49 1
  50   25   26 ar
  51   25   28 1
  52   26   27 ar
  53   27   50 1

#	End of record

