#	Name: ASD03082278
#	Creating user name:	WinNT
#	Creation time:	15. 06. 2019 20:27

#	Modifying user name:	WinNT
#	Modification time:	15. 06. 2019 20:27

#	Program:	/corina/corina34_cracker 3.40 0067  02.08.2006

@<TRIPOS>MOLECULE
ASD03082278
  47   50    0    0    0
SMALL
NO_CHARGES


@<TRIPOS>ATOM
   1 N1             0.1708     1.4113    -0.5522 N.am    
   2 N2             0.0607     0.0200    -0.3955 N.2     
   3 C3             1.1312    -0.3792     0.2505 C.2     
   4 N4             1.9085     0.6753     0.5099 N.2     
   5 C5             1.3499     1.7684     0.0350 C.2     
   6 N6             1.4123    -1.6966     0.6099 N.pl3   
   7 C7             0.4639    -2.6988     0.3886 C.ar    
   8 C8             0.8700    -4.0164     0.2255 C.ar    
   9 C9            -0.0736    -5.0073     0.0061 C.ar    
  10 C10           -1.4216    -4.6808    -0.0500 C.ar    
  11 C11           -1.8241    -3.3689     0.1121 C.ar    
  12 C12           -0.8872    -2.3789     0.3371 C.ar    
  13 O13            0.3206    -6.2979    -0.1544 O.3     
  14 C14            1.9016     3.1384     0.1218 C.ar    
  15 C15           -0.7085     2.2288    -1.1647 C.2     
  16 C16            1.0662     4.2366     0.3532 C.ar    
  17 C17            1.6232     5.4972     0.4267 C.ar    
  18 N18            2.9223     5.6732     0.2818 N.ar    
  19 C19            3.7451     4.6656     0.0624 C.ar    
  20 C20            3.2743     3.3713    -0.0195 C.ar    
  21 N21           -1.7978     1.7150    -1.7696 N.am    
  22 C22           -2.7535     2.6036    -2.4353 C.3     
  23 O23           -0.5190     3.4290    -1.1716 O.2     
  24 C24           -4.1940     2.1093    -2.5817 C.3     
  25 C25           -3.2797     2.1750    -3.8066 C.3     
  26 C26            5.2201     4.9313    -0.0946 C.3     
  27 C27           -0.7058    -7.2669    -0.3768 C.3     
  28 F28           -1.4100    -6.9414    -1.5410 F       
  29 F29           -0.1287    -8.5333    -0.5196 F       
  30 F30           -1.5838    -7.2747     0.7124 F       
  31 H31            2.2662    -1.9176     1.0136 H       
  32 H32            1.9192    -4.2686     0.2691 H       
  33 H33           -2.1569    -5.4532    -0.2209 H       
  34 H34           -2.8736    -3.1177     0.0676 H       
  35 H35           -1.2048    -1.3550     0.4682 H       
  36 H36            0.0015     4.1000     0.4721 H       
  37 H37            0.9866     6.3512     0.6050 H       
  38 H38            3.9537     2.5512    -0.1993 H       
  39 H39           -1.9490     0.7569    -1.7641 H       
  40 H40           -2.6020     3.6694    -2.2647 H       
  41 H41           -4.4307     1.1230    -2.1826 H       
  42 H42           -4.9903     2.8500    -2.5077 H       
  43 H43           -3.4743     2.9590    -4.5385 H       
  44 H44           -2.9147     1.2319    -4.2134 H       
  45 H45            5.7044     4.8798     0.8806 H       
  46 H46            5.6557     4.1828    -0.7565 H       
  47 H47            5.3672     5.9235    -0.5213 H       
@<TRIPOS>BOND
   1    1    2 1
   2    1    5 1
   3    1   15 am
   4    2    3 2
   5    3    4 1
   6    3    6 1
   7    4    5 2
   8    5   14 1
   9    6    7 1
  10    6   31 1
  11    7    8 ar
  12    7   12 ar
  13    8    9 ar
  14    8   32 1
  15    9   10 ar
  16    9   13 1
  17   10   11 ar
  18   10   33 1
  19   11   12 ar
  20   11   34 1
  21   12   35 1
  22   13   27 1
  23   14   16 ar
  24   14   20 ar
  25   15   21 am
  26   15   23 2
  27   16   17 ar
  28   16   36 1
  29   17   18 ar
  30   17   37 1
  31   18   19 ar
  32   19   20 ar
  33   19   26 1
  34   20   38 1
  35   21   22 1
  36   21   39 1
  37   22   24 1
  38   22   25 1
  39   22   40 1
  40   24   25 1
  41   24   41 1
  42   24   42 1
  43   25   43 1
  44   25   44 1
  45   26   45 1
  46   26   46 1
  47   26   47 1
  48   27   28 1
  49   27   29 1
  50   27   30 1

#	End of record

