#	Name: ASD07931897
#	Creating user name:	WinNT
#	Creation time:	15. 06. 2019 21:13

#	Modifying user name:	WinNT
#	Modification time:	15. 06. 2019 21:13

#	Program:	/corina/corina34_cracker 3.40 0067  02.08.2006

@<TRIPOS>MOLECULE
ASD07931897
  39   40    0    0    0
SMALL
NO_CHARGES


@<TRIPOS>ATOM
   1 C1            -0.0225     1.8097     0.0120 C.3     
   2 S2             0.0021    -0.0041     0.0020 S.o2    
   3 O3             0.8448    -0.4970     1.0346 O.2     
   4 O4            -1.3093    -0.5195    -0.1821 O.2     
   5 O5             0.7319    -0.3669    -1.2834 O.3     
   6 C6             2.1455    -0.1659    -1.2258 C.3     
   7 O7             2.3362     0.3399    -3.5895 O.3     
   8 C8             2.7718    -0.5609    -2.5646 C.3     
   9 C9             4.3094    -0.4567    -2.4746 C.3     
  10 C10            4.6823     0.1255    -3.8653 C.3     
  11 C11            3.4633     1.0425    -4.1367 C.3     
  12 C12            3.2826     1.2475    -5.6187 C.ar    
  13 C13            3.7760     2.3882    -6.2239 C.ar    
  14 C14            3.6103     2.5763    -7.5833 C.ar    
  15 C15            2.9515     1.6234    -8.3376 C.ar    
  16 C16            2.4589     0.4823    -7.7326 C.ar    
  17 C17            2.6284     0.2922    -6.3739 C.ar    
  18 C18            2.7700     1.8289    -9.8195 C.3     
  19 F19            3.8594     1.2789   -10.5035 F       
  20 F20            1.5919     1.2002   -10.2366 F       
  21 F21            2.6901     3.1984   -10.0940 F       
  22 C22            2.3669    -1.9917    -2.9248 C.3     
  23 H23            1.0001     2.1870     0.0043 H       
  24 H24           -0.5497     2.1708    -0.8711 H       
  25 H25           -0.5327     2.1613     0.9088 H       
  26 H26            2.3551     0.8842    -1.0223 H       
  27 H27            2.5679    -0.7812    -0.4314 H       
  28 H28            4.6060     0.2242    -1.6768 H       
  29 H29            4.7573    -1.4403    -2.3330 H       
  30 H30            5.6051     0.7034    -3.8146 H       
  31 H31            4.7554    -0.6629    -4.6144 H       
  32 H32            3.5917     2.0013    -3.6342 H       
  33 H33            4.2907     3.1327    -5.6346 H       
  34 H34            3.9952     3.4678    -8.0560 H       
  35 H35            1.9439    -0.2620    -8.3219 H       
  36 H36            2.2468    -0.6010    -5.9019 H       
  37 H37            1.2808    -2.0564    -2.9905 H       
  38 H38            2.8058    -2.2628    -3.8850 H       
  39 H39            2.7256    -2.6755    -2.1554 H       
@<TRIPOS>BOND
   1    1    2 1
   2    1   23 1
   3    1   24 1
   4    1   25 1
   5    2    3 2
   6    2    4 2
   7    2    5 1
   8    5    6 1
   9    6    8 1
  10    6   26 1
  11    6   27 1
  12    7    8 1
  13    7   11 1
  14    8    9 1
  15    8   22 1
  16    9   10 1
  17    9   28 1
  18    9   29 1
  19   10   11 1
  20   10   30 1
  21   10   31 1
  22   11   12 1
  23   11   32 1
  24   12   13 ar
  25   12   17 ar
  26   13   14 ar
  27   13   33 1
  28   14   15 ar
  29   14   34 1
  30   15   16 ar
  31   15   18 1
  32   16   17 ar
  33   16   35 1
  34   17   36 1
  35   18   19 1
  36   18   20 1
  37   18   21 1
  38   22   37 1
  39   22   38 1
  40   22   39 1

#	End of record

