#	Name: ASD01883729
#	Creating user name:	WinNT
#	Creation time:	15. 06. 2019 19:46

#	Modifying user name:	WinNT
#	Modification time:	15. 06. 2019 19:46

#	Program:	/corina/corina34_cracker 3.40 0067  02.08.2006

@<TRIPOS>MOLECULE
ASD01883729
  54   57    0    0    0
SMALL
NO_CHARGES


@<TRIPOS>ATOM
   1 C1            -0.4070     0.7384    -1.1126 C.2     
   2 C2             0.0021    -0.0041     0.0020 C.2     
   3 C3            -0.8269    -0.0436     1.1386 C.2     
   4 C4            -1.9990     0.6181     1.1664 C.2     
   5 N5            -2.4375     1.3532     0.1042 N.pl3   
   6 C6            -1.6865     1.4486    -1.0386 C.2     
   7 C7            -3.5720     2.0989    -0.1027 C.2     
   8 C8            -3.4873     2.6148    -1.3454 C.2     
   9 N9            -2.3371     2.2111    -1.8983 N.2     
  10 C10           -4.7001     2.3019     0.8756 C.3     
  11 C11           -5.8074     1.2838     0.5957 C.3     
  12 F12           -5.2964    -0.0111     0.7354 F       
  13 F13           -6.8547     1.4723     1.5039 F       
  14 F14           -6.2834     1.4592    -0.7080 F       
  15 N15            1.2030    -0.6889    -0.0141 N.pl3   
  16 C16            1.2305    -2.1543     0.0880 C.3     
  17 C17            2.1618    -2.5511     1.2378 C.3     
  18 C18            3.5346    -1.9102     1.0215 C.3     
  19 C19            3.3932    -0.3864     1.0183 C.3     
  20 C20            2.4756     0.0345    -0.1397 C.3     
  21 C21            4.4777    -2.3323     2.1499 C.3     
  22 C22            4.6205    -3.8556     2.1523 C.3     
  23 C23            5.5636    -4.2777     3.2807 C.3     
  24 C24            6.9361    -3.6371     3.0646 C.3     
  25 C25            6.7933    -2.1138     3.0623 C.3     
  26 C26            5.8502    -1.6917     1.9339 C.3     
  27 O27            7.8170    -4.0313     4.1186 O.3     
  28 C28            0.4055     0.8066    -2.2898 C.1     
  29 N29            1.0500     0.8606    -3.2237 N.1     
  30 H30           -0.5180    -0.6142     2.0020 H       
  31 H31           -2.6099     0.5652     2.0554 H       
  32 H32           -4.2232     3.2506    -1.8152 H       
  33 H33           -4.3292     2.1653     1.8914 H       
  34 H34           -5.0982     3.3108     0.7668 H       
  35 H35            0.2253    -2.5257     0.2872 H       
  36 H36            1.6008    -2.5787    -0.8452 H       
  37 H37            1.7426    -2.2033     2.1820 H       
  38 H38            2.2666    -3.6358     1.2634 H       
  39 H39            3.9423    -2.2391     0.0656 H       
  40 H40            2.9625    -0.0590     1.9645 H       
  41 H41            4.3745     0.0697     0.8875 H       
  42 H42            2.9498    -0.2117    -1.0897 H       
  43 H43            2.2912     1.1076    -0.0883 H       
  44 H44            4.0700    -2.0041     3.1060 H       
  45 H45            3.6426    -4.3120     2.3062 H       
  46 H46            5.0282    -4.1838     1.1961 H       
  47 H47            5.1559    -3.9495     4.2368 H       
  48 H48            5.6653    -5.3629     3.2824 H       
  49 H49            7.3438    -3.9653     2.1085 H       
  50 H50            6.3856    -1.7856     4.0184 H       
  51 H51            7.7711    -1.6574     2.9084 H       
  52 H52            6.2579    -2.0199     0.9777 H       
  53 H53            5.7485    -0.6065     1.9322 H       
  54 H54            8.7075    -3.6614     4.0460 H       
@<TRIPOS>BOND
   1    1    2 2
   2    1   28 1
   3    1    6 1
   4    2    3 1
   5    2   15 1
   6    3    4 2
   7    3   30 1
   8    4    5 1
   9    4   31 1
  10    5    6 1
  11    5    7 1
  12    6    9 2
  13    7    8 2
  14    7   10 1
  15    8    9 1
  16    8   32 1
  17   10   11 1
  18   10   33 1
  19   10   34 1
  20   11   12 1
  21   11   13 1
  22   11   14 1
  23   15   16 1
  24   15   20 1
  25   16   17 1
  26   16   35 1
  27   16   36 1
  28   17   18 1
  29   17   37 1
  30   17   38 1
  31   18   19 1
  32   18   21 1
  33   18   39 1
  34   19   20 1
  35   19   40 1
  36   19   41 1
  37   20   42 1
  38   20   43 1
  39   21   22 1
  40   21   26 1
  41   21   44 1
  42   22   23 1
  43   22   45 1
  44   22   46 1
  45   23   24 1
  46   23   47 1
  47   23   48 1
  48   24   25 1
  49   24   27 1
  50   24   49 1
  51   25   26 1
  52   25   50 1
  53   25   51 1
  54   26   52 1
  55   26   53 1
  56   27   54 1
  57   28   29 3

#	End of record

