#	Name: ASD01917805
#	Creating user name:	WinNT
#	Creation time:	15. 06. 2019 20:10

#	Modifying user name:	WinNT
#	Modification time:	15. 06. 2019 20:10

#	Program:	/corina/corina34_cracker 3.40 0067  02.08.2006

@<TRIPOS>MOLECULE
ASD01917805
  40   43    0    0    0
SMALL
NO_CHARGES


@<TRIPOS>ATOM
   1 C1             0.0059     1.2840    -0.0780 C.2     
   2 C2            -0.0051    -0.0627    -0.0664 C.2     
   3 C3            -1.2531    -0.9072    -0.0181 C.3     
   4 C4            -2.4216    -0.0372     0.4616 C.3     
   5 N5            -2.3898     1.2486    -0.2515 N.am    
   6 C6            -1.2358     2.1400    -0.0341 C.3     
   7 C7            -3.3897     1.6029    -1.0828 C.2     
   8 O8            -4.2786     0.8115    -1.3375 O.2     
   9 O9             1.2860     1.6752    -0.1282 O.3     
  10 C10            2.0465     0.5691    -0.1434 C.2     
  11 N11            1.2682    -0.4777    -0.1056 N.2     
  12 C12            3.5523     0.5408    -0.1958 C.3     
  13 O13            3.9811     0.5185    -1.5588 O.3     
  14 C14            5.3211     0.4914    -1.7836 C.ar    
  15 C15            5.8074     0.4687    -3.0827 C.ar    
  16 C16            7.1699     0.4412    -3.3086 C.ar    
  17 C17            8.0489     0.4363    -2.2413 C.ar    
  18 C18            7.5668     0.4585    -0.9456 C.ar    
  19 C19            6.2052     0.4923    -0.7144 C.ar    
  20 C20           -3.4067     2.9409    -1.6798 C.2     
  21 O21           -2.5570     3.9491    -1.3908 O.3     
  22 C22           -2.8728     5.0214    -2.1288 C.2     
  23 C23           -3.9369     4.7153    -2.9075 C.2     
  24 C24           -4.2817     3.3843    -2.6306 C.2     
  25 Cl25          -2.0533     6.5514    -2.0920 Cl      
  26 H26           -1.4707    -1.2945    -1.0135 H       
  27 H27           -1.1066    -1.7361     0.6744 H       
  28 H28           -3.3633    -0.5454     0.2544 H       
  29 H29           -2.3292     0.1383     1.5334 H       
  30 H30           -1.3185     2.6233     0.9394 H       
  31 H31           -1.1955     2.8932    -0.8210 H       
  32 H32            3.9497     1.4289     0.2956 H       
  33 H33            3.9170    -0.3506     0.3145 H       
  34 H34            5.1212     0.4721    -3.9167 H       
  35 H35            7.5490     0.4231    -4.3197 H       
  36 H36            9.1138     0.4148    -2.4199 H       
  37 H37            8.2553     0.4539    -0.1135 H       
  38 H38            5.8291     0.5096     0.2978 H       
  39 H39           -4.4259     5.3713    -3.6125 H       
  40 H40           -5.0849     2.8198    -3.0807 H       
@<TRIPOS>BOND
   1    1    2 2
   2    1    9 1
   3    1    6 1
   4    2    3 1
   5    2   11 1
   6    3    4 1
   7    3   26 1
   8    3   27 1
   9    4    5 1
  10    4   28 1
  11    4   29 1
  12    5    6 1
  13    5    7 am
  14    6   30 1
  15    6   31 1
  16    7    8 2
  17    7   20 1
  18    9   10 1
  19   10   11 2
  20   10   12 1
  21   12   13 1
  22   12   32 1
  23   12   33 1
  24   13   14 1
  25   14   15 ar
  26   14   19 ar
  27   15   16 ar
  28   15   34 1
  29   16   17 ar
  30   16   35 1
  31   17   18 ar
  32   17   36 1
  33   18   19 ar
  34   18   37 1
  35   19   38 1
  36   20   21 1
  37   20   24 2
  38   21   22 1
  39   22   23 2
  40   22   25 1
  41   23   24 1
  42   23   39 1
  43   24   40 1

#	End of record

