#	Name: ASD00170395
#	Creating user name:	WinNT
#	Creation time:	15. 06. 2019 18:32

#	Modifying user name:	WinNT
#	Modification time:	15. 06. 2019 18:32

#	Program:	/corina/corina34_cracker 3.40 0067  02.08.2006

@<TRIPOS>MOLECULE
ASD00170395
  21   23    0    0    0
SMALL
NO_CHARGES


@<TRIPOS>ATOM
   1 C1            -0.0162     1.3422     0.0094 C.2     
   2 C2             0.0021    -0.0041     0.0020 C.2     
   3 S3            -1.6545    -0.6069     0.0151 S.3     
   4 C4            -2.2573     1.0456     0.0299 C.2     
   5 N5            -1.2618     1.8661     0.0291 N.2     
   6 N6            -3.5940     1.4095     0.0450 N.pl3   
   7 C7             1.3898     1.8539    -0.0013 C.ar    
   8 C8             2.2757     0.7833    -0.0155 C.ar    
   9 C9             1.4411    -0.4718    -0.0142 C.3     
  10 C10            1.8846     3.1584     0.0003 C.ar    
  11 C11            3.2476     3.3735    -0.0122 C.ar    
  12 C12            4.1231     2.3012    -0.0268 C.ar    
  13 C13            3.6357     1.0046    -0.0276 C.ar    
  14 Br14           5.9891     2.6073    -0.0445 Br      
  15 H15           -4.2826     0.7263     0.0481 H       
  16 H16           -3.8412     2.3474     0.0524 H       
  17 H17            1.6544    -1.0651     0.8749 H       
  18 H18            1.6374    -1.0555    -0.9136 H       
  19 H19            1.2036     3.9966     0.0109 H       
  20 H20            3.6329     4.3824    -0.0110 H       
  21 H21            4.3200     0.1691    -0.0391 H       
@<TRIPOS>BOND
   1    1    2 2
   2    1    7 1
   3    1    5 1
   4    2    3 1
   5    2    9 1
   6    3    4 1
   7    4    5 2
   8    4    6 1
   9    6   15 1
  10    6   16 1
  11    7    8 ar
  12    7   10 ar
  13    8    9 1
  14    8   13 ar
  15    9   17 1
  16    9   18 1
  17   10   11 ar
  18   10   19 1
  19   11   12 ar
  20   11   20 1
  21   12   13 ar
  22   12   14 1
  23   13   21 1

#	End of record

