#	Name: ASD01202007
#	Creating user name:	WinNT
#	Creation time:	15. 06. 2019 19:09

#	Modifying user name:	WinNT
#	Modification time:	15. 06. 2019 19:09

#	Program:	/corina/corina34_cracker 3.40 0067  02.08.2006

@<TRIPOS>MOLECULE
ASD01202007
  36   39    0    0    0
SMALL
NO_CHARGES


@<TRIPOS>ATOM
   1 C1            -0.0179     1.4692     0.0101 C.2     
   2 C2             0.0021    -0.0041     0.0020 C.2     
   3 O3             1.0634    -0.5978    -0.0113 O.2     
   4 N4            -1.1558    -0.6938     0.0094 N.am    
   5 H5            -2.0023    -0.2203     0.0200 H       
   6 C6             1.0576     2.3087     0.0044 C.2     
   7 O7             0.6097     3.5679     0.0154 O.3     
   8 C8            -0.7320     3.5990     0.0284 C.2     
   9 C9            -1.2011     2.3420     0.0197 C.2     
  10 C10            2.5046     1.8877    -0.0110 C.3     
  11 C11           -1.5769     4.8468     0.0440 C.3     
  12 C12           -1.1370    -2.0827     0.0017 C.2     
  13 S13           -2.5248    -3.0804     0.0096 S.3     
  14 N14           -0.0668    -2.8087    -0.0180 N.2     
  15 C15           -1.5079    -4.5135    -0.0161 C.2     
  16 C16           -0.2204    -4.1276    -0.0280 C.2     
  17 C17           -1.5627    -6.0437    -0.0302 C.3     
  18 C18            0.6406    -5.4063    -0.0490 C.3     
  19 C19           -0.2881    -6.3459    -0.9002 C.3     
  20 C20           -1.0437    -6.4560     1.3840 C.3     
  21 C21            0.4412    -6.0188     1.3728 C.3     
  22 H22           -2.2362     2.0341     0.0257 H       
  23 H23            2.8440     1.7912    -1.0423 H       
  24 H24            3.1068     2.6382     0.5010 H       
  25 H25            2.6095     0.9292     0.4972 H       
  26 H26           -0.9297     5.7239     0.0426 H       
  27 H27           -2.2149     4.8646    -0.8397 H       
  28 H28           -2.1973     4.8544     0.9402 H       
  29 H29           -2.4993    -6.4913    -0.3627 H       
  30 H30            1.6715    -5.2885    -0.3828 H       
  31 H31            0.0151    -7.3914    -0.8454 H       
  32 H32           -0.3958    -6.0036    -1.9295 H       
  33 H33           -1.5926    -5.9265     2.1628 H       
  34 H34           -1.1247    -7.5341     1.5224 H       
  35 H35            1.0944    -6.8800     1.5133 H       
  36 H36            0.6252    -5.2685     2.1417 H       
@<TRIPOS>BOND
   1    1    2 1
   2    1    6 2
   3    1    9 1
   4    2    3 2
   5    2    4 am
   6    4    5 1
   7    4   12 1
   8    6    7 1
   9    6   10 1
  10    7    8 1
  11    8    9 2
  12    8   11 1
  13    9   22 1
  14   10   23 1
  15   10   24 1
  16   10   25 1
  17   11   26 1
  18   11   27 1
  19   11   28 1
  20   12   13 1
  21   12   14 2
  22   13   15 1
  23   14   16 1
  24   15   17 1
  25   15   16 2
  26   16   18 1
  27   17   19 1
  28   17   20 1
  29   17   29 1
  30   18   21 1
  31   18   19 1
  32   18   30 1
  33   19   31 1
  34   19   32 1
  35   20   21 1
  36   20   33 1
  37   20   34 1
  38   21   35 1
  39   21   36 1

#	End of record

