#	Name: ASD01813260
#	Creating user name:	WinNT
#	Creation time:	15. 06. 2019 19:30

#	Modifying user name:	WinNT
#	Modification time:	15. 06. 2019 19:30

#	Program:	/corina/corina34_cracker 3.40 0067  02.08.2006

@<TRIPOS>MOLECULE
ASD01813260
  56   59    0    0    0
SMALL
NO_CHARGES


@<TRIPOS>ATOM
   1 C1            -0.0178     1.4608     0.0101 C.3     
   2 N2             0.0021    -0.0041     0.0020 N.am    
   3 C3             0.5851    -0.6645    -1.0180 C.2     
   4 O4             1.0944    -0.0447    -1.9312 O.2     
   5 C5             0.6051    -2.1428    -1.0261 C.ar    
   6 C6             0.0161    -2.8575     0.0181 C.ar    
   7 C7             0.0379    -4.2369     0.0042 C.ar    
   8 C8             0.6422    -4.9117    -1.0416 C.ar    
   9 C9             0.6627    -6.4186    -1.0499 C.3     
  10 N10           -0.5300    -6.9193    -1.7376 N.pl3   
  11 C11           -1.6810    -7.2818    -1.1243 C.2     
  12 C12           -2.5877    -7.7010    -2.0541 C.2     
  13 C13           -3.9543    -8.1755    -1.7971 C.2     
  14 O14           -4.6626    -8.5214    -2.7239 O.2     
  15 N15           -4.4234    -8.2275    -0.5347 N.am    
  16 C16           -5.7860    -8.7006    -0.2784 C.3     
  17 H17           -6.4390    -8.3859    -1.0924 H       
  18 C18           -5.7866   -10.2278    -0.1856 C.3     
  19 C19           -7.2097   -10.7219     0.0821 C.3     
  20 C20           -7.7155   -10.1307     1.3994 C.3     
  21 C21           -7.7149    -8.6035     1.3066 C.3     
  22 C22           -6.2918    -8.1094     1.0390 C.3     
  23 H23           -5.6388    -8.4242     1.8530 H       
  24 O24           -6.2913    -6.6830     0.9523 O.3     
  25 C25           -1.9276    -7.5840    -3.3669 C.ar    
  26 N26           -2.3082    -7.8408    -4.6116 N.ar    
  27 C27           -1.4998    -7.6419    -5.6315 C.ar    
  28 C28           -0.2159    -7.1553    -5.4454 C.ar    
  29 C29            0.2298    -6.8715    -4.1664 C.ar    
  30 C30           -0.6418    -7.0828    -3.1020 C.ar    
  31 C31            1.2275    -4.2093    -2.0800 C.ar    
  32 C32            1.2081    -2.8298    -2.0809 C.ar    
  33 H33            1.0048     1.8381     0.0023 H       
  34 H34           -0.5450     1.8219    -0.8730 H       
  35 H35           -0.5280     1.8123     0.9069 H       
  36 H36           -0.4044    -0.4986     0.7308 H       
  37 H37           -0.4553    -2.3319     0.8353 H       
  38 H38           -0.4175    -4.7911     0.8116 H       
  39 H39            1.5550    -6.7670    -1.5698 H       
  40 H40            0.6724    -6.7874    -0.0242 H       
  41 H41           -1.8554    -7.2451    -0.0591 H       
  42 H42           -3.8587    -7.9517     0.2042 H       
  43 H43           -5.4262   -10.6490    -1.1241 H       
  44 H44           -5.1336   -10.5426     0.6284 H       
  45 H45           -7.8627   -10.4071    -0.7319 H       
  46 H46           -7.2101   -11.8099     0.1482 H       
  47 H47           -8.7293   -10.4827     1.5901 H       
  48 H48           -7.0625   -10.4455     2.2134 H       
  49 H49           -8.3679    -8.2887     0.4926 H       
  50 H50           -8.0753    -8.1823     2.2451 H       
  51 H51           -6.6010    -6.2401     1.7541 H       
  52 H52           -1.8434    -7.8624    -6.6314 H       
  53 H53            0.4336    -6.9986    -6.2939 H       
  54 H54            1.2268    -6.4918    -3.9989 H       
  55 H55            1.6974    -4.7421    -2.8935 H       
  56 H56            1.6616    -2.2827    -2.8941 H       
@<TRIPOS>BOND
   1    1    2 1
   2    1   33 1
   3    1   34 1
   4    1   35 1
   5    2    3 am
   6    2   36 1
   7    3    4 2
   8    3    5 1
   9    5   32 ar
  10    5    6 ar
  11    6    7 ar
  12    6   37 1
  13    7    8 ar
  14    7   38 1
  15    8    9 1
  16    8   31 ar
  17    9   10 1
  18    9   39 1
  19    9   40 1
  20   10   30 1
  21   10   11 1
  22   11   12 2
  23   11   41 1
  24   12   13 1
  25   12   25 1
  26   13   14 2
  27   13   15 am
  28   15   16 1
  29   15   42 1
  30   16   17 1
  31   16   22 1
  32   16   18 1
  33   18   19 1
  34   18   43 1
  35   18   44 1
  36   19   20 1
  37   19   45 1
  38   19   46 1
  39   20   21 1
  40   20   47 1
  41   20   48 1
  42   21   22 1
  43   21   49 1
  44   21   50 1
  45   22   23 1
  46   22   24 1
  47   24   51 1
  48   25   30 ar
  49   25   26 ar
  50   26   27 ar
  51   27   28 ar
  52   27   52 1
  53   28   29 ar
  54   28   53 1
  55   29   30 ar
  56   29   54 1
  57   31   32 ar
  58   31   55 1
  59   32   56 1

#	End of record

