#	Name: ASD01882365
#	Creating user name:	WinNT
#	Creation time:	15. 06. 2019 19:44

#	Modifying user name:	WinNT
#	Modification time:	15. 06. 2019 19:44

#	Program:	/corina/corina34_cracker 3.40 0067  02.08.2006

@<TRIPOS>MOLECULE
ASD01882365
  50   54    0    0    0
SMALL
NO_CHARGES


@<TRIPOS>ATOM
   1 C1             0.1488     1.1789    -0.4590 C.2     
   2 C2             0.2433    -0.2183    -0.3428 C.2     
   3 C3             1.4549    -0.7826    -0.0492 C.2     
   4 C4             2.5841     0.0458     0.1311 C.2     
   5 C5             2.4707     1.3833     0.0150 C.2     
   6 N6             1.2672     1.9558    -0.2775 N.pl3   
   7 N7            -0.4217     3.2169    -0.7220 N.2     
   8 N8            -0.8506     2.0039    -0.7315 N.2     
   9 C9             0.8569     3.2448    -0.4526 C.2     
  10 C10           -0.9744    -1.0844    -0.5385 C.3     
  11 F11           -1.5853    -1.3165     0.6985 F       
  12 F12           -1.8759    -0.4360    -1.3895 F       
  13 F13           -0.5924    -2.3046    -1.1063 F       
  14 N14            1.5734    -2.1639     0.0715 N.pl3   
  15 C15            2.3299    -3.0440    -0.8376 C.3     
  16 C16            1.6741    -4.4382    -0.6767 C.3     
  17 C17            1.3458    -4.4548     0.8397 C.3     
  18 C18            0.9700    -2.9864     1.1302 C.3     
  19 O19            2.5939    -5.4788    -1.0130 O.3     
  20 C20            2.0643    -6.6696    -1.3983 C.ar    
  21 C21            0.6882    -6.8218    -1.4874 C.ar    
  22 C22            0.1524    -8.0333    -1.8792 C.ar    
  23 C23            0.9863    -9.0937    -2.1825 C.ar    
  24 C24            2.3580    -8.9447    -2.0940 C.ar    
  25 C25            2.8990    -7.7334    -1.7086 C.ar    
  26 C26            1.7205     4.4760    -0.3555 C.3     
  27 C27            2.3095     4.7957    -1.7309 C.3     
  28 C28            3.1254     6.0827    -1.8683 C.3     
  29 C29            3.8303     4.7248    -1.8820 C.3     
  30 H30            3.5425    -0.3945     0.3633 H       
  31 H31            3.3404     2.0081     0.1551 H       
  32 H32            2.2361    -2.6972    -1.8667 H       
  33 H33            3.3787    -3.0819    -0.5432 H       
  34 H34            0.7655    -4.5138    -1.2740 H       
  35 H35            0.5056    -5.1182     1.0451 H       
  36 H36            2.2205    -4.7474     1.4205 H       
  37 H37            1.3627    -2.6865     2.1018 H       
  38 H38           -0.1140    -2.8732     1.1152 H       
  39 H39            0.0365    -5.9939    -1.2502 H       
  40 H40           -0.9188    -8.1524    -1.9483 H       
  41 H41            0.5654   -10.0400    -2.4886 H       
  42 H42            3.0073    -9.7747    -2.3308 H       
  43 H43            3.9707    -7.6160    -1.6444 H       
  44 H44            1.1171     5.3171    -0.0142 H       
  45 H45            2.5291     4.2976     0.3534 H       
  46 H46            1.7038     4.4903    -2.5842 H       
  47 H47            3.0568     6.6237    -2.8120 H       
  48 H48            3.2426     6.7016    -0.9787 H       
  49 H49            4.4113     4.4504    -1.0016 H       
  50 H50            4.2255     4.3726    -2.8349 H       
@<TRIPOS>BOND
   1    1    2 1
   2    1    6 1
   3    1    8 2
   4    2    3 2
   5    2   10 1
   6    3    4 1
   7    3   14 1
   8    4    5 2
   9    4   30 1
  10    5    6 1
  11    5   31 1
  12    6    9 1
  13    7    8 1
  14    7    9 2
  15    9   26 1
  16   10   11 1
  17   10   12 1
  18   10   13 1
  19   14   15 1
  20   14   18 1
  21   15   16 1
  22   15   32 1
  23   15   33 1
  24   16   17 1
  25   16   19 1
  26   16   34 1
  27   17   18 1
  28   17   35 1
  29   17   36 1
  30   18   37 1
  31   18   38 1
  32   19   20 1
  33   20   21 ar
  34   20   25 ar
  35   21   22 ar
  36   21   39 1
  37   22   23 ar
  38   22   40 1
  39   23   24 ar
  40   23   41 1
  41   24   25 ar
  42   24   42 1
  43   25   43 1
  44   26   27 1
  45   26   44 1
  46   26   45 1
  47   27   28 1
  48   27   29 1
  49   27   46 1
  50   28   29 1
  51   28   47 1
  52   28   48 1
  53   29   49 1
  54   29   50 1

#	End of record

