#	Name: ASD07300805
#	Creating user name:	WinNT
#	Creation time:	15. 06. 2019 21:10

#	Modifying user name:	WinNT
#	Modification time:	15. 06. 2019 21:10

#	Program:	/corina/corina34_cracker 3.40 0067  02.08.2006

@<TRIPOS>MOLECULE
ASD07300805
  40   43    0    0    0
SMALL
NO_CHARGES


@<TRIPOS>ATOM
   1 N1            -0.0169     1.3958     0.0097 N.pl3   
   2 N2             0.0021    -0.0041     0.0020 N.2     
   3 C3             1.2462    -0.4035    -0.0120 C.2     
   4 C4             2.0731     0.7383    -0.0138 C.2     
   5 C5             1.2594     1.8353    -0.0001 C.2     
   6 C6            -2.1145     1.8609    -1.1587 C.3     
   7 C7            -1.2153     2.2384     0.0202 C.3     
   8 O8            -3.2835     2.6828    -1.1484 O.3     
   9 C9             5.6713     0.3052     0.4003 C.2     
  10 C10            6.7383    -0.3617     1.0546 C.2     
  11 N11            4.3804    -0.0294     0.7361 N.pl3   
  12 N12            6.4708    -1.2810     1.9639 N.2     
  13 C13            5.2155    -1.5968     2.2811 C.2     
  14 C14            4.1649    -0.9894     1.6859 C.2     
  15 N15            5.6266     1.2411    -0.5316 N.2     
  16 C16            4.3565     1.5303    -0.8086 C.2     
  17 C17            3.5537     0.7467    -0.0279 C.2     
  18 C18           10.4985    -0.3381     1.0146 C.ar    
  19 C19            9.2058    -0.6784     1.3567 C.ar    
  20 C20            8.1426    -0.0296     0.7201 C.ar    
  21 C21            8.4421     0.9412    -0.2414 C.ar    
  22 C22            9.7642     1.2190    -0.5225 C.ar    
  23 N23           10.7373     0.5837     0.1017 N.ar    
  24 C24            3.8842     2.5469    -1.8160 C.3     
  25 H25            1.5824    -1.4297    -0.0204 H       
  26 H26            1.5791     2.8669     0.0017 H       
  27 H27           -1.5724     2.0120    -2.0921 H       
  28 H28           -2.4057     0.8140    -1.0729 H       
  29 H29           -1.7575     2.0874     0.9537 H       
  30 H30           -0.9242     3.2853    -0.0655 H       
  31 H31           -3.9004     2.4982    -1.8698 H       
  32 H32            5.0339    -2.3539     3.0297 H       
  33 H33            3.1565    -1.2621     1.9599 H       
  34 H34           11.3261    -0.8303     1.5038 H       
  35 H35            9.0177    -1.4343     2.1048 H       
  36 H36            7.6505     1.4652    -0.7563 H       
  37 H37           10.0055     1.9669    -1.2633 H       
  38 H38            3.7638     2.0671    -2.7872 H       
  39 H39            2.9285     2.9604    -1.4940 H       
  40 H40            4.6187     3.3483    -1.8951 H       
@<TRIPOS>BOND
   1    1    2 1
   2    1    5 1
   3    1    7 1
   4    2    3 2
   5    3    4 1
   6    3   25 1
   7    4    5 2
   8    4   17 1
   9    5   26 1
  10    6    7 1
  11    6    8 1
  12    6   27 1
  13    6   28 1
  14    7   29 1
  15    7   30 1
  16    8   31 1
  17    9   10 1
  18    9   11 1
  19    9   15 2
  20   10   12 2
  21   10   20 1
  22   11   14 1
  23   11   17 1
  24   12   13 1
  25   13   14 2
  26   13   32 1
  27   14   33 1
  28   15   16 1
  29   16   17 2
  30   16   24 1
  31   18   19 ar
  32   18   23 ar
  33   18   34 1
  34   19   20 ar
  35   19   35 1
  36   20   21 ar
  37   21   22 ar
  38   21   36 1
  39   22   23 ar
  40   22   37 1
  41   24   38 1
  42   24   39 1
  43   24   40 1

#	End of record

