#	Name: ASD01382005
#	Creating user name:	WinNT
#	Creation time:	15. 06. 2019 19:16

#	Modifying user name:	WinNT
#	Modification time:	15. 06. 2019 19:16

#	Program:	/corina/corina34_cracker 3.40 0067  02.08.2006

@<TRIPOS>MOLECULE
ASD01382005
  51   52    0    0    0
SMALL
NO_CHARGES


@<TRIPOS>ATOM
   1 C1             0.0059     1.4464     0.5293 C.ar    
   2 C2             0.0148     0.0748     0.6504 C.ar    
   3 C3             1.2069    -0.6290     0.5680 C.ar    
   4 C4             2.3989     0.0350     0.3634 C.ar    
   5 C5             2.4128     1.4188     0.2381 C.ar    
   6 C6             1.2057     2.1364     0.3214 C.ar    
   7 S7             3.9335     2.2697    -0.0227 S.3     
   8 C8             5.1336     0.9864     0.1097 C.ar    
   9 C9             5.5726     0.3236    -1.0299 C.ar    
  10 C10            6.5131    -0.6817    -0.9230 C.ar    
  11 C11            7.0185    -1.0294     0.3177 C.ar    
  12 C12            6.5832    -0.3709     1.4545 C.ar    
  13 C13            5.6470     0.6391     1.3533 C.ar    
  14 Cl14           8.2004    -2.2942     0.4482 Cl      
  15 C15            1.2046     3.5984     0.1909 C.2     
  16 C16            0.0423     4.2831     0.2717 C.2     
  17 C17            0.0411     5.7387     0.1418 C.2     
  18 N18           -1.1180     6.4215     0.2224 N.am    
  19 O19            1.0872     6.3344    -0.0393 O.2     
  20 C20           -1.1192     7.8807     0.0921 C.3     
  21 C21           -2.5516     8.4030     0.2205 C.3     
  22 C22           -2.5528     9.9269     0.0844 C.3     
  23 C23           -3.9851    10.4493     0.2128 C.3     
  24 N24           -3.9863    11.9125     0.0821 N.3     
  25 C25           -3.5855    12.3205    -1.2709 C.3     
  26 C26           -5.2987    12.4713     0.4335 C.3     
  27 H27           -0.9262     1.9886     0.5902 H       
  28 H28           -0.9119    -0.4561     0.8108 H       
  29 H29            1.2023    -1.7046     0.6651 H       
  30 H30            3.3224    -0.5214     0.3010 H       
  31 H31            5.1783     0.5941    -1.9983 H       
  32 H32            6.8545    -1.1975    -1.8084 H       
  33 H33            6.9793    -0.6444     2.4213 H       
  34 H34            5.3080     1.1528     2.2407 H       
  35 H35            2.1326     4.1270     0.0302 H       
  36 H36           -0.8857     3.7545     0.4324 H       
  37 H37           -1.9515     5.9468     0.3667 H       
  38 H38           -0.5019     8.3161     0.8779 H       
  39 H39           -0.7170     8.1588    -0.8820 H       
  40 H40           -3.1689     7.9676    -0.5652 H       
  41 H41           -2.9538     8.1249     1.1946 H       
  42 H42           -1.9355    10.3624     0.8702 H       
  43 H43           -2.1506    10.2051    -0.8897 H       
  44 H44           -4.6025    10.0138    -0.5729 H       
  45 H45           -4.3874    10.1712     1.1870 H       
  46 H46           -4.2831    11.9042    -1.9976 H       
  47 H47           -3.5949    13.4083    -1.3401 H       
  48 H48           -2.5810    11.9518    -1.4790 H       
  49 H49           -5.5397    12.2123     1.4644 H       
  50 H50           -5.2717    13.5559     0.3281 H       
  51 H51           -6.0583    12.0604    -0.2315 H       
@<TRIPOS>BOND
   1    1    2 ar
   2    1    6 ar
   3    1   27 1
   4    2    3 ar
   5    2   28 1
   6    3    4 ar
   7    3   29 1
   8    4    5 ar
   9    4   30 1
  10    5    6 ar
  11    5    7 1
  12    6   15 1
  13    7    8 1
  14    8    9 ar
  15    8   13 ar
  16    9   10 ar
  17    9   31 1
  18   10   11 ar
  19   10   32 1
  20   11   12 ar
  21   11   14 1
  22   12   13 ar
  23   12   33 1
  24   13   34 1
  25   15   16 2
  26   15   35 1
  27   16   17 1
  28   16   36 1
  29   17   18 am
  30   17   19 2
  31   18   20 1
  32   18   37 1
  33   20   21 1
  34   20   38 1
  35   20   39 1
  36   21   22 1
  37   21   40 1
  38   21   41 1
  39   22   23 1
  40   22   42 1
  41   22   43 1
  42   23   24 1
  43   23   44 1
  44   23   45 1
  45   24   25 1
  46   24   26 1
  47   25   46 1
  48   25   47 1
  49   25   48 1
  50   26   49 1
  51   26   50 1
  52   26   51 1

#	End of record

