#	Name: ASD01880329
#	Creating user name:	WinNT
#	Creation time:	15. 06. 2019 19:40

#	Modifying user name:	WinNT
#	Modification time:	15. 06. 2019 19:40

#	Program:	/corina/corina34_cracker 3.40 0067  02.08.2006

@<TRIPOS>MOLECULE
ASD01880329
  32   33    0    0    0
SMALL
NO_CHARGES


@<TRIPOS>ATOM
   1 C1            -0.0159     1.3177     0.0093 C.ar    
   2 N2             0.0021    -0.0041     0.0020 N.ar    
   3 C3            -1.1218    -0.7052     0.0094 C.ar    
   4 C4            -2.3614    -0.0158     0.0254 C.ar    
   5 C5            -2.3245     1.3811     0.0326 C.ar    
   6 N6            -1.1378     2.0017     0.0291 N.ar    
   7 C7            -3.7207    -0.5234     0.0366 C.2     
   8 C8            -4.6578     0.4042     0.0512 C.2     
   9 S9            -3.9638     2.0146     0.0528 S.3     
  10 Cl10           1.4919     2.1781    -0.0005 Cl      
  11 C11           -6.1371     0.1169     0.0649 C.3     
  12 N12           -1.0872    -2.0879     0.0012 N.pl3   
  13 C13            0.1994    -2.7883    -0.0158 C.3     
  14 C14           -0.0424    -4.2991    -0.0220 C.3     
  15 C15           -1.9045    -5.2674    -1.2695 C.2     
  16 C16           -0.7277    -4.6929    -1.3051 C.2     
  17 C17            1.2770    -5.0194     0.0844 C.2     
  18 C18            1.5051    -5.8228     1.0937 C.2     
  19 H19           -3.9473    -1.5794     0.0329 H       
  20 H20           -6.4832     0.0421     1.0958 H       
  21 H21           -6.6686     0.9241    -0.4392 H       
  22 H22           -6.3294    -0.8232    -0.4521 H       
  23 H23           -1.9148    -2.5938     0.0067 H       
  24 H24            0.7552    -2.5057    -0.9099 H       
  25 H25            0.7732    -2.5158     0.8700 H       
  26 H26           -0.6733    -4.5695     0.8247 H       
  27 H27           -2.3956    -5.5496    -2.1890 H       
  28 H28           -2.3835    -5.4588    -0.3207 H       
  29 H29           -0.2487    -4.5015    -2.2539 H       
  30 H30            2.0344    -4.8734    -0.6714 H       
  31 H31            0.7476    -5.9688     1.8496 H       
  32 H32            2.4507    -6.3390     1.1700 H       
@<TRIPOS>BOND
   1    1    2 ar
   2    1   10 1
   3    1    6 ar
   4    2    3 ar
   5    3    4 ar
   6    3   12 1
   7    4    5 ar
   8    4    7 1
   9    5    6 ar
  10    5    9 1
  11    7    8 2
  12    7   19 1
  13    8    9 1
  14    8   11 1
  15   11   20 1
  16   11   21 1
  17   11   22 1
  18   12   13 1
  19   12   23 1
  20   13   14 1
  21   13   24 1
  22   13   25 1
  23   14   17 1
  24   14   16 1
  25   14   26 1
  26   15   16 2
  27   15   27 1
  28   15   28 1
  29   16   29 1
  30   17   18 2
  31   17   30 1
  32   18   31 1
  33   18   32 1

#	End of record

