#	Name: ASD08830204
#	Creating user name:	WinNT
#	Creation time:	15. 06. 2019 21:20

#	Modifying user name:	WinNT
#	Modification time:	15. 06. 2019 21:20

#	Program:	/corina/corina34_cracker 3.40 0067  02.08.2006

@<TRIPOS>MOLECULE
ASD08830204
  51   54    0    0    0
SMALL
NO_CHARGES


@<TRIPOS>ATOM
   1 C1            -0.3795     1.6400    -1.0897 C.ar    
   2 C2            -0.4489     0.1889    -1.3082 C.2     
   3 C3            -1.7679    -0.4612    -1.6382 C.3     
   4 C4            -1.5641    -1.9672    -1.8152 C.3     
   5 N5            -2.8498    -2.6008    -2.1369 N.3     
   6 O6             0.5553    -0.4861    -1.2229 O.2     
   7 C7            -1.5505     2.4190    -1.1843 C.ar    
   8 C8            -2.6598    -4.0001    -2.5458 C.3     
   9 C9            -4.0257    -4.6378    -2.8134 C.3     
  10 O10           -4.7172    -3.8732    -3.8046 O.3     
  11 C11           -4.9200    -2.5056    -3.4389 C.3     
  12 C12           -3.5632    -1.8462    -3.1776 C.3     
  13 C13            0.8389     2.2343    -0.7857 C.ar    
  14 C14            0.8978     3.6186    -0.5786 C.ar    
  15 C15           -0.2882     4.3918    -0.6827 C.ar    
  16 C16           -1.5101     3.7595    -0.9866 C.ar    
  17 C17            2.1158     4.2528    -0.2685 C.ar    
  18 C18            2.1491     5.5966    -0.0714 C.ar    
  19 C19            0.9835     6.3667    -0.1717 C.ar    
  20 C20           -0.2265     5.7766    -0.4751 C.ar    
  21 N21            1.0464     7.7435     0.0364 N.pl3   
  22 C22           -0.0553     8.4211     0.5620 C.2     
  23 N23           -1.1615     7.8611     0.9884 N.2     
  24 N24           -2.0004     8.8962     1.4317 N.pl3   
  25 C25           -1.3225    10.0476     1.2368 C.2     
  26 N26           -0.1507     9.7461     0.7175 N.2     
  27 S27           -1.9016    11.6678     1.6167 S.3     
  28 C28           -0.4727    12.6445     1.0870 C.3     
  29 H29           -2.4739    -0.2829    -0.8271 H       
  30 H30           -2.1611    -0.0367    -2.5620 H       
  31 H31           -0.8581    -2.1454    -2.6263 H       
  32 H32           -1.1709    -2.3916    -0.8914 H       
  33 H33           -2.4912     1.9422    -1.4173 H       
  34 H34           -2.0575    -4.0355    -3.4535 H       
  35 H35           -2.1528    -4.5461    -1.7502 H       
  36 H36           -3.8872    -5.6579    -3.1717 H       
  37 H37           -4.6081    -4.6509    -1.8921 H       
  38 H38           -5.4283    -1.9835    -4.2496 H       
  39 H39           -5.5284    -2.4567    -2.5358 H       
  40 H40           -3.7156    -0.8200    -2.8433 H       
  41 H41           -2.9753    -1.8472    -4.0955 H       
  42 H42            1.7334     1.6340    -0.7092 H       
  43 H43           -2.4146     4.3442    -1.0671 H       
  44 H44            3.0225     3.6717    -0.1871 H       
  45 H45            3.0866     6.0773     0.1663 H       
  46 H46           -1.1205     6.3778    -0.5506 H       
  47 H47            1.8557     8.2308    -0.1840 H       
  48 H48           -2.8911     8.8025     1.8041 H       
  49 H49            0.4054    12.3427     1.6580 H       
  50 H50           -0.2912    12.4765     0.0255 H       
  51 H51           -0.6718    13.7023     1.2587 H       
@<TRIPOS>BOND
   1    1    2 1
   2    1   13 ar
   3    1    7 ar
   4    2    3 1
   5    2    6 2
   6    3    4 1
   7    3   29 1
   8    3   30 1
   9    4    5 1
  10    4   31 1
  11    4   32 1
  12    5    8 1
  13    5   12 1
  14    7   16 ar
  15    7   33 1
  16    8    9 1
  17    8   34 1
  18    8   35 1
  19    9   10 1
  20    9   36 1
  21    9   37 1
  22   10   11 1
  23   11   12 1
  24   11   38 1
  25   11   39 1
  26   12   40 1
  27   12   41 1
  28   13   14 ar
  29   13   42 1
  30   14   15 ar
  31   14   17 ar
  32   15   16 ar
  33   15   20 ar
  34   16   43 1
  35   17   18 ar
  36   17   44 1
  37   18   19 ar
  38   18   45 1
  39   19   20 ar
  40   19   21 1
  41   20   46 1
  42   21   22 1
  43   21   47 1
  44   22   23 2
  45   22   26 1
  46   23   24 1
  47   24   25 1
  48   24   48 1
  49   25   26 2
  50   25   27 1
  51   27   28 1
  52   28   49 1
  53   28   50 1
  54   28   51 1

#	End of record

