#	Name: ASD01880113
#	Creating user name:	WinNT
#	Creation time:	15. 06. 2019 19:40

#	Modifying user name:	WinNT
#	Modification time:	15. 06. 2019 19:40

#	Program:	/corina/corina34_cracker 3.40 0067  02.08.2006

@<TRIPOS>MOLECULE
ASD01880113
  65   70    0    0    0
SMALL
NO_CHARGES


@<TRIPOS>ATOM
   1 C1            -0.0168     1.3889     0.0097 C.ar    
   2 C2             0.0021    -0.0041     0.0020 C.ar    
   3 C3            -1.1854    -0.7079     0.0095 C.ar    
   4 C4            -2.3923    -0.0328     0.0246 C.ar    
   5 C5            -2.4168     1.3504     0.0318 C.ar    
   6 C6            -1.2357     2.0640     0.0307 C.ar    
   7 C7            -3.7358     2.0791     0.0478 C.3     
   8 O8            -4.1402     2.3027     1.4000 O.3     
   9 C9            -5.3157     2.9521     1.5920 C.ar    
  10 C10           -6.0664     3.3668     0.4984 C.ar    
  11 C11           -7.2621     4.0274     0.6896 C.ar    
  12 C12           -7.7187     4.2793     1.9853 C.ar    
  13 C13           -6.9498     3.8541     3.0827 C.ar    
  14 C14           -5.7712     3.1973     2.8830 C.ar    
  15 C15           -8.2517     4.5746    -0.3107 C.3     
  16 C16           -9.3881     5.2022     0.5082 C.3     
  17 C17           -9.0044     4.9897     1.9525 C.2     
  18 C18           -9.4977     6.6975     0.2034 C.3     
  19 C19           -9.7888     6.9106    -1.2924 C.3     
  20 C20          -11.1436     7.6435    -1.3777 C.3     
  21 C21          -11.2808     8.3492    -0.0057 C.3     
  22 C22          -10.6858     7.3084     0.9750 C.3     
  23 O23           -9.6461     5.3444     2.9187 O.2     
  24 C24           -4.9542     2.7449     4.0658 C.3     
  25 C25           -7.4321     4.1207     4.4853 C.3     
  26 C26            1.2566     2.1510     0.0016 C.ar    
  27 C27            2.4809     1.4827    -0.0137 C.ar    
  28 C28            3.6503     2.2473    -0.0207 C.ar    
  29 C29            3.5490     3.6386    -0.0122 C.ar    
  30 N30            2.3719     4.2301     0.0027 N.ar    
  31 C31            1.2462     3.5452     0.0034 C.ar    
  32 C32            4.9770     1.5908    -0.0364 C.2     
  33 N33            5.2089     0.2952    -0.0456 N.2     
  34 N34            6.4721     0.0646    -0.0584 N.2     
  35 N35            7.1310     1.1724    -0.0583 N.2     
  36 N36            6.1830     2.2106    -0.0499 N.pl3   
  37 H37            0.9440    -0.5323    -0.0101 H       
  38 H38           -1.1719    -1.7878     0.0032 H       
  39 H39           -3.3190    -0.5874     0.0305 H       
  40 H40           -1.2560     3.1438     0.0364 H       
  41 H41           -3.6282     3.0364    -0.4622 H       
  42 H42           -4.4890     1.4784    -0.4621 H       
  43 H43           -5.7127     3.1717    -0.5032 H       
  44 H44           -7.7754     5.3325    -0.9327 H       
  45 H45           -8.6397     3.7683    -0.9332 H       
  46 H46          -10.3315     4.7015     0.2906 H       
  47 H47           -8.5726     7.2034     0.4795 H       
  48 H48           -9.0054     7.5206    -1.7421 H       
  49 H49           -9.8520     5.9487    -1.8012 H       
  50 H50          -11.1307     8.3766    -2.1842 H       
  51 H51          -11.9549     6.9300    -1.5225 H       
  52 H52          -10.7021     9.2727     0.0132 H       
  53 H53          -12.3280     8.5435     0.2258 H       
  54 H54          -11.4231     6.5408     1.2102 H       
  55 H55          -10.3387     7.7969     1.8854 H       
  56 H56           -5.2572     1.7380     4.3529 H       
  57 H57           -3.8975     2.7440     3.7985 H       
  58 H58           -5.1170     3.4255     4.9015 H       
  59 H59           -8.0457     3.2857     4.8234 H       
  60 H60           -6.5749     4.2338     5.1490 H       
  61 H61           -8.0247     5.0355     4.4980 H       
  62 H62            2.5238     0.4035    -0.0196 H       
  63 H63            4.4471     4.2386    -0.0175 H       
  64 H64            0.3029     4.0708     0.0155 H       
  65 H65            6.3548     3.1652    -0.0480 H       
@<TRIPOS>BOND
   1    1    2 ar
   2    1   26 1
   3    1    6 ar
   4    2    3 ar
   5    2   37 1
   6    3    4 ar
   7    3   38 1
   8    4    5 ar
   9    4   39 1
  10    5    6 ar
  11    5    7 1
  12    6   40 1
  13    7    8 1
  14    7   41 1
  15    7   42 1
  16    8    9 1
  17    9   10 ar
  18    9   14 ar
  19   10   11 ar
  20   10   43 1
  21   11   12 ar
  22   11   15 1
  23   12   13 ar
  24   12   17 1
  25   13   14 ar
  26   13   25 1
  27   14   24 1
  28   15   16 1
  29   15   44 1
  30   15   45 1
  31   16   17 1
  32   16   18 1
  33   16   46 1
  34   17   23 2
  35   18   19 1
  36   18   22 1
  37   18   47 1
  38   19   20 1
  39   19   48 1
  40   19   49 1
  41   20   21 1
  42   20   50 1
  43   20   51 1
  44   21   22 1
  45   21   52 1
  46   21   53 1
  47   22   54 1
  48   22   55 1
  49   24   56 1
  50   24   57 1
  51   24   58 1
  52   25   59 1
  53   25   60 1
  54   25   61 1
  55   26   27 ar
  56   26   31 ar
  57   27   28 ar
  58   27   62 1
  59   28   29 ar
  60   28   32 1
  61   29   30 ar
  62   29   63 1
  63   30   31 ar
  64   31   64 1
  65   32   33 2
  66   32   36 1
  67   33   34 1
  68   34   35 2
  69   35   36 1
  70   36   65 1

#	End of record

