#	Name: ASD08151032
#	Creating user name:	WinNT
#	Creation time:	15. 06. 2019 21:17

#	Modifying user name:	WinNT
#	Modification time:	15. 06. 2019 21:17

#	Program:	/corina/corina34_cracker 3.40 0067  02.08.2006

@<TRIPOS>MOLECULE
ASD08151032
  32   34    0    0    0
SMALL
NO_CHARGES


@<TRIPOS>ATOM
   1 C1            -0.0184     1.5028     0.0103 C.2     
   2 C2             0.1077     0.0014    -0.0218 C.3     
   3 N3             2.1610     5.8593    -0.1759 N.ar    
   4 C4             3.2383     6.6067    -0.1767 C.ar    
   5 C5             4.5132     6.0519    -0.0853 C.ar    
   6 C6             4.6613     4.6970     0.0085 C.ar    
   7 C7             3.5015     3.8994     0.0093 C.ar    
   8 C8             3.5849     2.4970     0.1038 C.ar    
   9 C9             2.4558     1.7412     0.1027 C.ar    
  10 C10            1.1869     2.3407     0.0088 C.ar    
  11 C11            1.0674     3.7332    -0.0866 C.ar    
  12 C12            2.2377     4.5297    -0.0869 C.ar    
  13 C13           -0.2651     4.3635    -0.1862 C.ar    
  14 C14           -0.8459     4.5853    -1.4394 C.ar    
  15 C15           -2.0927     5.1755    -1.5236 C.ar    
  16 C16           -2.7645     5.5457    -0.3726 C.ar    
  17 C17           -2.1947     5.3287     0.8699 C.ar    
  18 C18           -0.9536     4.7354     0.9701 C.ar    
  19 F19           -0.1898     4.2242    -2.5639 F       
  20 Cl20           5.1378     1.7299     0.2208 Cl      
  21 O21           -1.1159     2.0190     0.0323 O.2     
  22 H22            1.1562    -0.2728    -0.1376 H       
  23 H23           -0.2762    -0.4154     0.9093 H       
  24 H24           -0.4659    -0.3935    -0.8604 H       
  25 H25            3.1348     7.6792    -0.2503 H       
  26 H26            5.3830     6.6921    -0.0889 H       
  27 H27            5.6419     4.2500     0.0797 H       
  28 H28            2.5337     0.6665     0.1750 H       
  29 H29           -2.5432     5.3482    -2.4898 H       
  30 H30           -3.7385     6.0069    -0.4438 H       
  31 H31           -2.7255     5.6209     1.7639 H       
  32 H32           -0.5133     4.5628     1.9411 H       
@<TRIPOS>BOND
   1    1    2 1
   2    1   10 1
   3    1   21 2
   4    2   22 1
   5    2   23 1
   6    2   24 1
   7    3    4 ar
   8    3   12 ar
   9    4    5 ar
  10    4   25 1
  11    5    6 ar
  12    5   26 1
  13    6    7 ar
  14    6   27 1
  15    7    8 ar
  16    7   12 ar
  17    8    9 ar
  18    8   20 1
  19    9   10 ar
  20    9   28 1
  21   10   11 ar
  22   11   12 ar
  23   11   13 1
  24   13   14 ar
  25   13   18 ar
  26   14   15 ar
  27   14   19 1
  28   15   16 ar
  29   15   29 1
  30   16   17 ar
  31   16   30 1
  32   17   18 ar
  33   17   31 1
  34   18   32 1

#	End of record

