#	Name: ASD05170040
#	Creating user name:	WinNT
#	Creation time:	15. 06. 2019 20:57

#	Modifying user name:	WinNT
#	Modification time:	15. 06. 2019 20:57

#	Program:	/corina/corina34_cracker 3.40 0067  02.08.2006

@<TRIPOS>MOLECULE
ASD05170040
  42   46    0    0    0
SMALL
NO_CHARGES


@<TRIPOS>ATOM
   1 C1            -0.0178     1.4608     0.0101 C.3     
   2 N2             0.0021    -0.0041     0.0020 N.am    
   3 C3             0.0054    -0.6553    -1.1610 C.2     
   4 O4            -0.0914     0.0075    -2.1752 O.2     
   5 C5             0.1176    -2.1145    -1.3118 C.ar    
   6 N6             0.9029    -2.5506    -2.3065 N.ar    
   7 C7             1.0925    -3.8224    -2.5540 C.ar    
   8 C8             0.4780    -4.7975    -1.7821 C.ar    
   9 C9            -0.3421    -4.4094    -0.7429 C.ar    
  10 C10           -0.5318    -3.0367    -0.4978 C.ar    
  11 C11           -1.4294    -2.6852     0.6258 C.ar    
  12 C12           -2.5789    -3.4603     0.8147 C.ar    
  13 C13           -3.4379    -3.1848     1.8710 C.ar    
  14 C14           -3.1509    -2.1370     2.7446 C.ar    
  15 C15           -2.0205    -1.3691     2.5492 C.ar    
  16 C16           -1.1704    -1.6320     1.4892 C.ar    
  17 C17            0.0240    -0.7321     1.2697 C.3     
  18 C18            1.3783    -1.1894     1.8106 C.3     
  19 C19            0.6332    -0.0359     2.4862 C.3     
  20 C20           -4.6587    -4.0047     2.0696 C.ar    
  21 C21           -5.5326    -3.7321     3.1260 C.ar    
  22 C22           -6.6575    -4.5243     3.2690 C.ar    
  23 C23           -6.8800    -5.5540     2.3681 C.ar    
  24 F24           -7.9772    -6.3307     2.5027 F       
  25 N25           -6.0351    -5.7866     1.3798 N.ar    
  26 C26           -4.9543    -5.0539     1.2028 C.ar    
  27 H27            1.0048     1.8381     0.0023 H       
  28 H28           -0.5450     1.8219    -0.8730 H       
  29 H29           -0.5280     1.8123     0.9069 H       
  30 H30            1.7358    -4.1161    -3.3703 H       
  31 H31            0.6389    -5.8447    -1.9917 H       
  32 H32           -0.8313    -5.1486    -0.1260 H       
  33 H33           -2.7988    -4.2731     0.1384 H       
  34 H34           -3.8117    -1.9263     3.5724 H       
  35 H35           -1.7985    -0.5582     3.2272 H       
  36 H36            1.4139    -2.1428     2.3376 H       
  37 H37            2.2637    -0.9422     1.2249 H       
  38 H38            1.0285     0.9700     2.3450 H       
  39 H39            0.1788    -0.2306     3.4577 H       
  40 H40           -5.3343    -2.9233     3.8137 H       
  41 H41           -7.3545    -4.3429     4.0738 H       
  42 H42           -4.2893    -5.2717     0.3802 H       
@<TRIPOS>BOND
   1    1    2 1
   2    1   27 1
   3    1   28 1
   4    1   29 1
   5    2   17 1
   6    2    3 am
   7    3    4 2
   8    3    5 1
   9    5   10 ar
  10    5    6 ar
  11    6    7 ar
  12    7    8 ar
  13    7   30 1
  14    8    9 ar
  15    8   31 1
  16    9   10 ar
  17    9   32 1
  18   10   11 1
  19   11   16 ar
  20   11   12 ar
  21   12   13 ar
  22   12   33 1
  23   13   14 ar
  24   13   20 1
  25   14   15 ar
  26   14   34 1
  27   15   16 ar
  28   15   35 1
  29   16   17 1
  30   17   19 1
  31   17   18 1
  32   18   19 1
  33   18   36 1
  34   18   37 1
  35   19   38 1
  36   19   39 1
  37   20   26 ar
  38   20   21 ar
  39   21   22 ar
  40   21   40 1
  41   22   23 ar
  42   22   41 1
  43   23   24 1
  44   23   25 ar
  45   25   26 ar
  46   26   42 1

#	End of record

