#	Name: ASD03240493
#	Creating user name:	WinNT
#	Creation time:	15. 06. 2019 20:35

#	Modifying user name:	WinNT
#	Modification time:	15. 06. 2019 20:35

#	Program:	/corina/corina34_cracker 3.40 0067  02.08.2006

@<TRIPOS>MOLECULE
ASD03240493
  34   36    0    0    0
SMALL
NO_CHARGES


@<TRIPOS>ATOM
   1 C1            -0.0943     1.3930    -0.3522 C.ar    
   2 C2            -0.0374     0.0590     0.0086 C.ar    
   3 C3             1.0539     2.1592    -0.3554 C.ar    
   4 C4             2.2713     1.5865     0.0055 C.ar    
   5 C5             2.3230     0.2425     0.3679 C.ar    
   6 C6             1.1688    -0.5145     0.3682 C.ar    
   7 C7             3.5097     2.4057     0.0033 C.2     
   8 C8             4.7617     1.9751     0.3328 C.2     
   9 N9             5.6009     3.0222     0.2012 N.pl3   
  10 N10            4.8554     4.1302    -0.2196 N.2     
  11 C11            3.6065     3.7669    -0.3450 C.2     
  12 C12           -1.2942    -0.7726     0.0103 C.3     
  13 C13           -1.0682    -2.0262    -0.7949 C.2     
  14 C14           -1.6496    -1.1429     1.4272 C.ar    
  15 C15           -2.7823    -0.6130     2.0164 C.ar    
  16 C16           -3.1088    -0.9522     3.3159 C.ar    
  17 C17           -2.3017    -1.8223     4.0270 C.ar    
  18 C18           -1.1681    -2.3523     3.4368 C.ar    
  19 C19           -0.8458    -2.0167     2.1353 C.ar    
  20 Cl20          -2.7108    -2.2484     5.6595 Cl      
  21 O21           -1.7521    -2.2529    -1.7640 O.2     
  22 H22           -1.0380     1.8349    -0.6362 H       
  23 H23            1.0084     3.2007    -0.6376 H       
  24 H24            3.2644    -0.2064     0.6486 H       
  25 H25            1.2077    -1.5565     0.6494 H       
  26 H26            5.0317     0.9764     0.6428 H       
  27 H27            6.5561     3.0101     0.3694 H       
  28 H28            2.7896     4.4018    -0.6549 H       
  29 H29           -2.1097    -0.1995    -0.4309 H       
  30 H30           -0.2946    -2.7220    -0.5052 H       
  31 H31           -3.4121     0.0664     1.4614 H       
  32 H32           -3.9936    -0.5379     3.7763 H       
  33 H33           -0.5377    -3.0315     3.9914 H       
  34 H34            0.0390    -2.4303     1.6745 H       
@<TRIPOS>BOND
   1    1    2 ar
   2    1    3 ar
   3    1   22 1
   4    2   12 1
   5    2    6 ar
   6    3    4 ar
   7    3   23 1
   8    4    5 ar
   9    4    7 1
  10    5    6 ar
  11    5   24 1
  12    6   25 1
  13    7    8 2
  14    7   11 1
  15    8    9 1
  16    8   26 1
  17    9   10 1
  18    9   27 1
  19   10   11 2
  20   11   28 1
  21   12   13 1
  22   12   14 1
  23   12   29 1
  24   13   21 2
  25   13   30 1
  26   14   15 ar
  27   14   19 ar
  28   15   16 ar
  29   15   31 1
  30   16   17 ar
  31   16   32 1
  32   17   18 ar
  33   17   20 1
  34   18   19 ar
  35   18   33 1
  36   19   34 1

#	End of record

