#	Name: ASD04370062
#	Creating user name:	WinNT
#	Creation time:	15. 06. 2019 20:49

#	Modifying user name:	WinNT
#	Modification time:	15. 06. 2019 20:49

#	Program:	/corina/corina34_cracker 3.40 0067  02.08.2006

@<TRIPOS>MOLECULE
ASD04370062
  66   66    0    0    0
SMALL
NO_CHARGES


@<TRIPOS>ATOM
   1 C1            -0.6309     1.0722     0.4056 C.2     
   2 C2            -0.4028    -0.4162     0.3442 C.3     
   3 C3             1.0876    -0.6958     0.1405 C.3     
   4 C4             1.3036    -2.1988    -0.0465 C.3     
   5 O5             0.3027     1.8314     0.2975 O.2     
   6 O6            -1.8721     1.5545     0.5748 O.3     
   7 N7             1.8353    -0.2372     1.3139 N.am    
   8 C8             3.1538     0.0231     1.2133 C.2     
   9 C9             3.9454     0.3894     2.4423 C.3     
  10 C10            5.4054     0.6326     2.0547 C.3     
  11 C11            6.2091     1.0045     3.3024 C.3     
  12 C12            7.6691     1.2477     2.9149 C.3     
  13 C13            8.4728     1.6195     4.1625 C.3     
  14 C14            9.9328     1.8627     3.7750 C.3     
  15 C15           10.7365     2.2346     5.0227 C.3     
  16 C16           12.1965     2.4778     4.6351 C.3     
  17 C17           13.0001     2.8497     5.8828 C.3     
  18 O18            3.7033    -0.0375     0.1338 O.2     
  19 C19           14.4382     3.0892     5.5011 C.ar    
  20 C20           14.8550     4.3561     5.1376 C.ar    
  21 C21           16.1741     4.5759     4.7874 C.ar    
  22 C22           17.0765     3.5288     4.8012 C.ar    
  23 C23           16.6599     2.2621     5.1656 C.ar    
  24 C24           15.3417     2.0432     5.5200 C.ar    
  25 C25           18.5143     3.7681     4.4185 C.3     
  26 F26           19.2497     4.1092     5.5586 F       
  27 F27           19.0457     2.6048     3.8514 F       
  28 F28           18.5821     4.8125     3.4901 F       
  29 N29            0.6331    -2.6406    -1.2766 N.3     
  30 C30            1.3969    -2.2397    -2.4656 C.3     
  31 C31            0.4071    -4.0921    -1.2608 C.3     
  32 H32           -0.7341    -0.8733     1.2766 H       
  33 H33           -0.9683    -0.8364    -0.4875 H       
  34 H34            1.4391    -0.1653    -0.7444 H       
  35 H35            2.3712    -2.4061    -0.1201 H       
  36 H36            0.8875    -2.7346     0.8067 H       
  37 H37           -1.9687     2.5161     0.6080 H       
  38 H38            1.3813    -0.1209     2.1632 H       
  39 H39            3.5312     1.2954     2.8846 H       
  40 H40            3.8921    -0.4249     3.1649 H       
  41 H41            5.8197    -0.2734     1.6124 H       
  42 H42            5.4587     1.4469     1.3321 H       
  43 H43            5.7949     1.9105     3.7448 H       
  44 H44            6.1558     0.1902     4.0250 H       
  45 H45            8.0834     0.3417     2.4725 H       
  46 H46            7.7224     2.0620     2.1923 H       
  47 H47            8.0585     2.5255     4.6049 H       
  48 H48            8.4195     0.8052     4.8851 H       
  49 H49           10.3470     0.9568     3.3327 H       
  50 H50            9.9861     2.6771     3.0524 H       
  51 H51           10.3222     3.1406     5.4650 H       
  52 H52           10.6832     1.4203     5.7453 H       
  53 H53           12.6107     1.5718     4.1928 H       
  54 H54           12.2498     3.2921     3.9125 H       
  55 H55           12.5859     3.7557     6.3252 H       
  56 H56           12.9468     2.0354     6.6054 H       
  57 H57           14.1499     5.1742     5.1268 H       
  58 H58           16.4995     5.5655     4.5027 H       
  59 H59           17.3648     1.4439     5.1761 H       
  60 H60           15.0171     1.0544     5.8082 H       
  61 H61            2.3617    -2.7469    -2.4658 H       
  62 H62            0.8423    -2.5135    -3.3631 H       
  63 H63            1.5535    -1.1611    -2.4502 H       
  64 H64           -0.2197    -4.3530    -0.4081 H       
  65 H65           -0.0905    -4.3924    -2.1829 H       
  66 H66            1.3639    -4.6079    -1.1797 H       
@<TRIPOS>BOND
   1    1    2 1
   2    1    5 2
   3    1    6 1
   4    2    3 1
   5    2   32 1
   6    2   33 1
   7    3    4 1
   8    3    7 1
   9    3   34 1
  10    4   29 1
  11    4   35 1
  12    4   36 1
  13    6   37 1
  14    7    8 am
  15    7   38 1
  16    8    9 1
  17    8   18 2
  18    9   10 1
  19    9   39 1
  20    9   40 1
  21   10   11 1
  22   10   41 1
  23   10   42 1
  24   11   12 1
  25   11   43 1
  26   11   44 1
  27   12   13 1
  28   12   45 1
  29   12   46 1
  30   13   14 1
  31   13   47 1
  32   13   48 1
  33   14   15 1
  34   14   49 1
  35   14   50 1
  36   15   16 1
  37   15   51 1
  38   15   52 1
  39   16   17 1
  40   16   53 1
  41   16   54 1
  42   17   19 1
  43   17   55 1
  44   17   56 1
  45   19   20 ar
  46   19   24 ar
  47   20   21 ar
  48   20   57 1
  49   21   22 ar
  50   21   58 1
  51   22   23 ar
  52   22   25 1
  53   23   24 ar
  54   23   59 1
  55   24   60 1
  56   25   26 1
  57   25   27 1
  58   25   28 1
  59   29   30 1
  60   29   31 1
  61   30   61 1
  62   30   62 1
  63   30   63 1
  64   31   64 1
  65   31   65 1
  66   31   66 1

#	End of record

