#	Name: ASD03330564
#	Creating user name:	WinNT
#	Creation time:	15. 06. 2019 20:37

#	Modifying user name:	WinNT
#	Modification time:	15. 06. 2019 20:37

#	Program:	/corina/corina34_cracker 3.40 0067  02.08.2006

@<TRIPOS>MOLECULE
ASD03330564
  60   62    0    0    0
SMALL
NO_CHARGES


@<TRIPOS>ATOM
   1 C1            -0.0620     2.0052     1.7863 C.2     
   2 N2            -0.1511     0.7139     2.2024 N.pl3   
   3 C3             1.2143     2.1989     1.3527 C.2     
   4 N4             1.8786     1.0306     1.4913 N.2     
   5 C5             1.0653     0.1321     1.9952 C.2     
   6 C6             1.4101    -1.2757     2.2896 C.ar    
   7 C7             1.7713     3.4576     0.8265 C.2     
   8 O8             1.0696     4.4480     0.7500 O.2     
   9 C9             3.6120     4.7626    -0.0932 C.3     
  10 N10            3.0583     3.5112     0.4299 N.am    
  11 C11            3.3002     4.8731    -1.5870 C.3     
  12 C12            1.7892     4.7647    -1.8020 C.3     
  13 C13            3.7946     6.2222    -2.1128 C.3     
  14 C14            4.0048     3.7430    -2.3401 C.3     
  15 C15            5.1051     4.7752     0.1105 C.2     
  16 N16            5.7931     5.9270    -0.0177 N.am    
  17 O17            5.6877     3.7488     0.3898 O.2     
  18 C18            7.2527     5.9262     0.1072 C.3     
  19 C19           -1.3437     0.0873     2.7791 C.3     
  20 C20           -2.5599     0.4302     1.9131 C.3     
  21 C21           -3.1680     1.7499     2.3772 C.3     
  22 N22           -2.1331     2.6653     2.8618 N.3     
  23 C23           -1.1833     3.0116     1.7940 C.3     
  24 C24           -2.7306     3.8730     3.4470 C.3     
  25 C25            2.0958    -2.0427     1.3444 C.ar    
  26 C26            2.4145    -3.3581     1.6272 C.ar    
  27 C27            2.0557    -3.9130     2.8417 C.ar    
  28 C28            1.3764    -3.1574     3.7814 C.ar    
  29 C29            1.0571    -1.8422     3.5149 C.ar    
  30 F30            2.4461    -1.5010     0.1574 F       
  31 H31            3.1662     5.6058     0.4344 H       
  32 H32            3.6179     2.7213     0.4909 H       
  33 H33            1.2872     5.5699    -1.2655 H       
  34 H34            1.5671     4.8435    -2.8662 H       
  35 H35            1.4370     3.8036    -1.4274 H       
  36 H36            4.8393     6.3601    -1.8339 H       
  37 H37            3.7024     6.2449    -3.1987 H       
  38 H38            3.1944     7.0228    -1.6804 H       
  39 H39            3.6526     2.7819    -1.9656 H       
  40 H40            3.7826     3.8217    -3.4043 H       
  41 H41            5.0812     3.8202    -2.1870 H       
  42 H42            5.3217     6.7566    -0.1926 H       
  43 H43            7.5327     5.5609     1.0952 H       
  44 H44            7.6823     5.2767    -0.6555 H       
  45 H45            7.6293     6.9405    -0.0253 H       
  46 H46           -1.2097    -0.9940     2.8072 H       
  47 H47           -1.4994     0.4625     3.7906 H       
  48 H48           -2.2498     0.5203     0.8720 H       
  49 H49           -3.3030    -0.3623     2.0017 H       
  50 H50           -3.6941     2.2141     1.5431 H       
  51 H51           -3.8771     1.5537     3.1814 H       
  52 H52           -0.7782     4.0072     1.9753 H       
  53 H53           -1.6948     2.9948     0.8316 H       
  54 H54           -3.3696     3.5930     4.2844 H       
  55 H55           -1.9399     4.5356     3.7989 H       
  56 H56           -3.3256     4.3865     2.6917 H       
  57 H57            2.9442    -3.9532     0.8981 H       
  58 H58            2.3064    -4.9409     3.0580 H       
  59 H59            1.0993    -3.5975     4.7279 H       
  60 H60            0.5272    -1.2545     4.2499 H       
@<TRIPOS>BOND
   1    1    2 1
   2    1    3 2
   3    1   23 1
   4    2   19 1
   5    2    5 1
   6    3    4 1
   7    3    7 1
   8    4    5 2
   9    5    6 1
  10    6   25 ar
  11    6   29 ar
  12    7    8 2
  13    7   10 am
  14    9   10 1
  15    9   11 1
  16    9   15 1
  17    9   31 1
  18   10   32 1
  19   11   12 1
  20   11   13 1
  21   11   14 1
  22   12   33 1
  23   12   34 1
  24   12   35 1
  25   13   36 1
  26   13   37 1
  27   13   38 1
  28   14   39 1
  29   14   40 1
  30   14   41 1
  31   15   16 am
  32   15   17 2
  33   16   18 1
  34   16   42 1
  35   18   43 1
  36   18   44 1
  37   18   45 1
  38   19   20 1
  39   19   46 1
  40   19   47 1
  41   20   21 1
  42   20   48 1
  43   20   49 1
  44   21   22 1
  45   21   50 1
  46   21   51 1
  47   22   23 1
  48   22   24 1
  49   23   52 1
  50   23   53 1
  51   24   54 1
  52   24   55 1
  53   24   56 1
  54   25   26 ar
  55   25   30 1
  56   26   27 ar
  57   26   57 1
  58   27   28 ar
  59   27   58 1
  60   28   29 ar
  61   28   59 1
  62   29   60 1

#	End of record

