#	Name: ASD00170483
#	Creating user name:	WinNT
#	Creation time:	15. 06. 2019 18:32

#	Modifying user name:	WinNT
#	Modification time:	15. 06. 2019 18:32

#	Program:	/corina/corina34_cracker 3.40 0067  02.08.2006

@<TRIPOS>MOLECULE
ASD00170483
  39   42    0    0    0
SMALL
NO_CHARGES


@<TRIPOS>ATOM
   1 C1            -0.0167     1.3817     0.0096 C.ar    
   2 C2             0.0021    -0.0041     0.0020 C.ar    
   3 C3             1.2249    -0.6859    -0.0133 C.ar    
   4 C4             2.4112     0.0354    -0.0207 C.ar    
   5 C5             2.3880     1.4234    -0.0131 C.ar    
   6 C6             1.1646     2.0957     0.0022 C.ar    
   7 C7             3.8608    -0.3765    -0.0368 C.3     
   8 C8             4.6507     0.9142    -0.0374 C.2     
   9 C9             3.7896     1.9488    -0.0236 C.2     
  10 S10            6.3014     1.5331    -0.0498 S.3     
  11 C11            5.6852     3.1806    -0.0351 C.2     
  12 N12            4.3952     3.1567    -0.0233 N.2     
  13 N13            6.4642     4.3263    -0.0368 N.pl3   
  14 C14            1.2528    -2.1689    -0.0210 C.ar    
  15 C15            0.7456    -2.8712    -1.1130 C.ar    
  16 C16            0.7734    -4.2501    -1.1175 C.ar    
  17 C17            1.3054    -4.9386    -0.0357 C.ar    
  18 C18            1.8109    -4.2419     1.0535 C.ar    
  19 C19            1.7915    -2.8629     1.0611 C.ar    
  20 O20            1.3310    -6.2972    -0.0428 O.3     
  21 C21            1.8924    -6.9415     1.1025 C.3     
  22 O22           -1.1648    -0.7002     0.0098 O.3     
  23 C23           -2.3741     0.0608     0.0259 C.3     
  24 H24           -0.9609     1.9059     0.0169 H       
  25 H25            1.1424     3.1754     0.0082 H       
  26 H26            4.0961    -0.9617     0.8522 H       
  27 H27            4.0790    -0.9521    -0.9363 H       
  28 H28            7.4315     4.2550    -0.0467 H       
  29 H29            6.0423     5.1997    -0.0280 H       
  30 H30            0.3310    -2.3362    -1.9546 H       
  31 H31            0.3806    -4.7948    -1.9633 H       
  32 H32            2.2237    -4.7803     1.8938 H       
  33 H33            2.1849    -2.3215     1.9088 H       
  34 H34            2.9299    -6.6296     1.2227 H       
  35 H35            1.3244    -6.6639     1.9904 H       
  36 H36            1.8511    -8.0224     0.9680 H       
  37 H37           -3.2290    -0.6154     0.0308 H       
  38 H38           -2.3991     0.6845     0.9196 H       
  39 H39           -2.4168     0.6940    -0.8603 H       
@<TRIPOS>BOND
   1    1    2 ar
   2    1    6 ar
   3    1   24 1
   4    2    3 ar
   5    2   22 1
   6    3    4 ar
   7    3   14 1
   8    4    5 ar
   9    4    7 1
  10    5    6 ar
  11    5    9 1
  12    6   25 1
  13    7    8 1
  14    7   26 1
  15    7   27 1
  16    8    9 2
  17    8   10 1
  18    9   12 1
  19   10   11 1
  20   11   12 2
  21   11   13 1
  22   13   28 1
  23   13   29 1
  24   14   15 ar
  25   14   19 ar
  26   15   16 ar
  27   15   30 1
  28   16   17 ar
  29   16   31 1
  30   17   18 ar
  31   17   20 1
  32   18   19 ar
  33   18   32 1
  34   19   33 1
  35   20   21 1
  36   21   34 1
  37   21   35 1
  38   21   36 1
  39   22   23 1
  40   23   37 1
  41   23   38 1
  42   23   39 1

#	End of record

