#	Name: ASD07301094
#	Creating user name:	WinNT
#	Creation time:	15. 06. 2019 21:10

#	Modifying user name:	WinNT
#	Modification time:	15. 06. 2019 21:10

#	Program:	/corina/corina34_cracker 3.40 0067  02.08.2006

@<TRIPOS>MOLECULE
ASD07301094
  29   30    0    0    0
SMALL
NO_CHARGES


@<TRIPOS>ATOM
   1 C1            -0.0171     1.4660     0.0522 C.2     
   2 C2             0.0021    -0.0041     0.0012 C.2     
   3 C3             1.2768    -0.6357    -0.0569 C.2     
   4 C4             2.3779     0.1597    -0.0611 C.2     
   5 N5             2.2593     1.5104    -0.0110 N.pl3   
   6 N6             1.1315     2.1172     0.0417 N.2     
   7 O7            -1.0311    -0.6548     0.0089 O.2     
   8 C8             3.3590     3.6643    -0.1133 C.ar    
   9 C9             3.4273     2.2800    -0.0175 C.ar    
  10 C10            4.6764     1.6697     0.0723 C.ar    
  11 C11            5.8040     2.4744     0.0623 C.ar    
  12 C12            5.6545     3.8452    -0.0358 C.ar    
  13 N13            4.4573     4.3924    -0.1194 N.ar    
  14 O14            1.3882    -1.9897    -0.1061 O.3     
  15 C15            2.7098    -2.5303    -0.1625 C.3     
  16 C16           -1.2903     2.1960     0.1076 C.2     
  17 O17           -2.3390     1.5866     0.1117 O.2     
  18 C18           -1.2937     3.7021     0.1595 C.3     
  19 H19            3.3596    -0.2884    -0.1046 H       
  20 H20            2.3964     4.1482    -0.1880 H       
  21 H21            4.7635     0.5959     0.1483 H       
  22 H22            6.7886     2.0358     0.1306 H       
  23 H23            6.5304     4.4770    -0.0437 H       
  24 H24            3.2663    -2.2226     0.7228 H       
  25 H25            2.6561    -3.6184    -0.1979 H       
  26 H26            3.2151    -2.1622    -1.0554 H       
  27 H27           -0.2671     4.0683     0.1476 H       
  28 H28           -1.8294     4.0942    -0.7050 H       
  29 H29           -1.7870     4.0330     1.0734 H       
@<TRIPOS>BOND
   1    1    2 1
   2    1    6 2
   3    1   16 1
   4    2    3 1
   5    2    7 2
   6    3    4 2
   7    3   14 1
   8    4    5 1
   9    4   19 1
  10    5    6 1
  11    5    9 1
  12    8    9 ar
  13    8   13 ar
  14    8   20 1
  15    9   10 ar
  16   10   11 ar
  17   10   21 1
  18   11   12 ar
  19   11   22 1
  20   12   13 ar
  21   12   23 1
  22   14   15 1
  23   15   24 1
  24   15   25 1
  25   15   26 1
  26   16   17 2
  27   16   18 1
  28   18   27 1
  29   18   28 1
  30   18   29 1

#	End of record

