#	Name: ASD09200033
#	Creating user name:	WinNT
#	Creation time:	15. 06. 2019 21:21

#	Modifying user name:	WinNT
#	Modification time:	15. 06. 2019 21:21

#	Program:	/corina/corina34_cracker 3.40 0067  02.08.2006

@<TRIPOS>MOLECULE
ASD09200033
  52   55    0    0    0
SMALL
NO_CHARGES


@<TRIPOS>ATOM
   1 N1            -0.0160     1.3295     0.0094 N.am    
   2 C2             0.0021    -0.0041     0.0020 C.2     
   3 S3             1.2781    -0.9053    -0.0145 S.o     
   4 C4             0.4605    -2.4791    -0.0155 C.2     
   5 C5            -0.8388    -2.1594    -0.0019 C.2     
   6 N6            -1.0583    -0.7971     0.0132 N.am    
   7 C7            -1.9269    -3.1623     0.0026 C.ar    
   8 C8            -1.6100    -4.5162    -0.0071 C.ar    
   9 C9            -2.6480    -5.4666    -0.0028 C.ar    
  10 C10           -4.0382    -5.0064     0.0119 C.ar    
  11 C11           -4.3020    -3.6334     0.0216 C.ar    
  12 C12           -3.2580    -2.7338     0.0222 C.ar    
  13 C13           -2.3848    -6.8396    -0.0125 C.ar    
  14 C14           -3.4689    -7.7472    -0.0080 C.ar    
  15 C15           -4.7995    -7.2812     0.0062 C.ar    
  16 C16           -5.0843    -5.9579     0.0163 C.ar    
  17 C17            1.2379     2.0952     0.0015 C.3     
  18 C18            1.1994     3.0925    -1.1607 C.3     
  19 C19           -0.0615     3.9525    -1.0482 C.3     
  20 C20           -1.3004     3.0585    -1.1376 C.3     
  21 C21           -1.2903     2.0608     0.0193 C.3     
  22 C22           -0.0591     4.6875     0.2937 C.3     
  23 N23           -0.0850     4.9322    -2.1425 N.3     
  24 C24           -3.2161    -9.1357    -0.0183 C.2     
  25 O25           -4.2489   -10.0122    -0.0140 O.3     
  26 O26           -2.0660    -9.5472    -0.0310 O.2     
  27 C27           -3.9198   -11.4027    -0.0250 C.3     
  28 H28            1.7137    -0.7899    -1.2817 H       
  29 H29            0.9059    -3.4629    -0.0248 H       
  30 H30           -1.9574    -0.4334     0.0243 H       
  31 H31           -0.5782    -4.8351    -0.0182 H       
  32 H32           -5.3219    -3.2785     0.0324 H       
  33 H33           -3.4724    -1.6753     0.0302 H       
  34 H34           -1.3674    -7.2019    -0.0238 H       
  35 H35           -5.6094    -7.9957     0.0094 H       
  36 H36           -6.1126    -5.6280     0.0267 H       
  37 H37            1.3424     2.6349     0.9427 H       
  38 H38            2.0802     1.4157    -0.1279 H       
  39 H39            2.0809     3.7323    -1.1205 H       
  40 H40            1.1863     2.5495    -2.1058 H       
  41 H41           -2.1982     3.6741    -1.0808 H       
  42 H42           -1.2900     2.5158    -2.0828 H       
  43 H43           -2.1165     1.3593    -0.0960 H       
  44 H44           -1.3912     2.5955     0.9637 H       
  45 H45            0.8226     5.3252     0.3570 H       
  46 H46           -0.9571     5.3001     0.3740 H       
  47 H47           -0.0411     3.9609     1.1059 H       
  48 H48           -0.9086     5.5128    -2.0905 H       
  49 H49            0.7535     5.4934    -2.1435 H       
  50 H50           -3.3442   -11.6328    -0.9216 H       
  51 H51           -3.3282   -11.6430     0.8583 H       
  52 H52           -4.8362   -11.9930    -0.0202 H       
@<TRIPOS>BOND
   1    1    2 am
   2    1   17 1
   3    1   21 1
   4    2    3 2
   5    2    6 am
   6    3    4 1
   7    3   28 1
   8    4    5 2
   9    4   29 1
  10    5    6 1
  11    5    7 1
  12    6   30 1
  13    7    8 ar
  14    7   12 ar
  15    8    9 ar
  16    8   31 1
  17    9   10 ar
  18    9   13 ar
  19   10   11 ar
  20   10   16 ar
  21   11   12 ar
  22   11   32 1
  23   12   33 1
  24   13   14 ar
  25   13   34 1
  26   14   15 ar
  27   14   24 1
  28   15   16 ar
  29   15   35 1
  30   16   36 1
  31   17   18 1
  32   17   37 1
  33   17   38 1
  34   18   19 1
  35   18   39 1
  36   18   40 1
  37   19   20 1
  38   19   22 1
  39   19   23 1
  40   20   21 1
  41   20   41 1
  42   20   42 1
  43   21   43 1
  44   21   44 1
  45   22   45 1
  46   22   46 1
  47   22   47 1
  48   23   48 1
  49   23   49 1
  50   24   25 1
  51   24   26 2
  52   25   27 1
  53   27   50 1
  54   27   51 1
  55   27   52 1

#	End of record

