#	Name: ASD01903012
#	Creating user name:	WinNT
#	Creation time:	15. 06. 2019 19:54

#	Modifying user name:	WinNT
#	Modification time:	15. 06. 2019 19:54

#	Program:	/corina/corina34_cracker 3.40 0067  02.08.2006

@<TRIPOS>MOLECULE
ASD01903012
  44   46    0    0    0
SMALL
NO_CHARGES


@<TRIPOS>ATOM
   1 C1            -0.0024     1.3866    -0.2243 C.ar    
   2 C2             0.0133     0.0010    -0.2376 C.ar    
   3 C3             1.2047    -0.6809    -0.0311 C.ar    
   4 C4             2.3751     0.0202     0.1877 C.ar    
   5 C5             2.3636     1.4016     0.2021 C.ar    
   6 C6             1.1744     2.0893    -0.0044 C.ar    
   7 N7             1.1627     3.4875     0.0097 N.am    
   8 C8             0.1024     4.1474     0.5163 C.2     
   9 O9            -0.8786     3.5308     0.8828 O.2     
  10 C10            0.1328     5.6243     0.6263 C.ar    
  11 O11           -1.1371    -0.6900    -0.4522 O.3     
  12 C12           -1.0469    -2.1161    -0.4525 C.3     
  13 N13            1.2070     6.2922     0.2243 N.ar    
  14 C14            1.2744     7.6033     0.3048 C.ar    
  15 C15            0.2185     8.3401     0.8164 C.ar    
  16 C16           -0.9231     7.6825     1.2479 C.ar    
  17 C17           -0.9688     6.3012     1.1456 C.ar    
  18 C18           -2.4315    -2.7147    -0.7081 C.3     
  19 C19           -2.3364    -4.2187    -0.7084 C.2     
  20 C20           -3.5418    -5.0322    -0.9343 C.ar    
  21 O21           -1.2667    -4.7585    -0.5226 O.2     
  22 C22           -3.4575    -6.4278    -0.9353 C.ar    
  23 C23           -4.5927    -7.1837    -1.1480 C.ar    
  24 C24           -5.8122    -6.5626    -1.3603 C.ar    
  25 C25           -5.9025    -5.1815    -1.3605 C.ar    
  26 C26           -4.7785    -4.4131    -1.1433 C.ar    
  27 Cl27          -4.4915    -8.9167    -1.1499 Cl      
  28 H28           -0.9276     1.9188    -0.3893 H       
  29 H29            1.2167    -1.7607    -0.0410 H       
  30 H30            3.3006    -0.5128     0.3481 H       
  31 H31            3.2798     1.9472     0.3737 H       
  32 H32            1.9177     3.9824    -0.3451 H       
  33 H33           -0.3619    -2.4367    -1.2375 H       
  34 H34           -0.6765    -2.4570     0.5144 H       
  35 H35            2.1653     8.1125    -0.0322 H       
  36 H36            0.2842     9.4163     0.8788 H       
  37 H37           -1.7596     8.2344     1.6505 H       
  38 H38           -1.8423     5.7564     1.4721 H       
  39 H39           -3.1165    -2.3941     0.0769 H       
  40 H40           -2.8019    -2.3738    -1.6749 H       
  41 H41           -2.5068    -6.9131    -0.7705 H       
  42 H42           -6.6971    -7.1589    -1.5269 H       
  43 H43           -6.8570    -4.7043    -1.5272 H       
  44 H44           -4.8511    -3.3356    -1.1440 H       
@<TRIPOS>BOND
   1    1    2 ar
   2    1    6 ar
   3    1   28 1
   4    2    3 ar
   5    2   11 1
   6    3    4 ar
   7    3   29 1
   8    4    5 ar
   9    4   30 1
  10    5    6 ar
  11    5   31 1
  12    6    7 1
  13    7    8 am
  14    7   32 1
  15    8    9 2
  16    8   10 1
  17   10   13 ar
  18   10   17 ar
  19   11   12 1
  20   12   18 1
  21   12   33 1
  22   12   34 1
  23   13   14 ar
  24   14   15 ar
  25   14   35 1
  26   15   16 ar
  27   15   36 1
  28   16   17 ar
  29   16   37 1
  30   17   38 1
  31   18   19 1
  32   18   39 1
  33   18   40 1
  34   19   20 1
  35   19   21 2
  36   20   22 ar
  37   20   26 ar
  38   22   23 ar
  39   22   41 1
  40   23   24 ar
  41   23   27 1
  42   24   25 ar
  43   24   42 1
  44   25   26 ar
  45   25   43 1
  46   26   44 1

#	End of record

