#	Name: ASD01231338
#	Creating user name:	WinNT
#	Creation time:	15. 06. 2019 19:15

#	Modifying user name:	WinNT
#	Modification time:	15. 06. 2019 19:15

#	Program:	/corina/corina34_cracker 3.40 0067  02.08.2006

@<TRIPOS>MOLECULE
ASD01231338
  52   54    0    0    0
SMALL
NO_CHARGES


@<TRIPOS>ATOM
   1 C1             2.4293     2.1490    -2.0728 C.ar    
   2 C2             2.2054     0.8299    -1.7284 C.ar    
   3 C3             2.1622     0.4610    -0.3917 C.ar    
   4 C4             2.3442     1.4186     0.5961 C.ar    
   5 C5             2.5677     2.7359     0.2464 C.ar    
   6 C6             2.6102     3.1010    -1.0868 C.ar    
   7 S7             2.4916     2.6172    -3.7704 S.o2    
   8 O8             3.2505     3.8171    -3.8281 O.2     
   9 O9             2.8339     1.4453    -4.4975 O.2     
  10 N10            0.9502     3.0164    -4.2256 N.am    
  11 O11            1.9417    -0.8356    -0.0503 O.3     
  12 C12            6.0741    -4.6390    -0.3710 C.3     
  13 C13            5.1962    -5.9069    -0.4331 C.3     
  14 C14            3.8888    -5.4379     0.2398 C.3     
  15 C15            3.8420    -3.9417     0.0148 C.ar    
  16 C16            2.7844    -3.0540     0.1106 C.ar    
  17 C17            2.9812    -1.7057    -0.1444 C.ar    
  18 C18            4.2428    -1.2472    -0.4966 C.ar    
  19 C19            5.2951    -2.1348    -0.5913 C.ar    
  20 C20            5.0980    -3.4823    -0.3363 C.ar    
  21 S21            8.4609    -5.1827     0.7790 S.o2    
  22 O22            8.9187    -5.0868     2.1208 O.2     
  23 O23            8.3756    -6.4398     0.1220 O.2     
  24 N24            6.8949    -4.6480     0.8425 N.am    
  25 C25            9.3103    -3.9719    -0.2714 C.3     
  26 C26            9.1770    -2.5785     0.3463 C.3     
  27 C27           10.7909    -4.3417    -0.3811 C.3     
  28 C28            0.2856     4.1751    -3.6239 C.3     
  29 H29            2.0638     0.0867    -2.4991 H       
  30 H30            2.3107     1.1341     1.6374 H       
  31 H31            2.7093     3.4816     1.0148 H       
  32 H32            2.7851     4.1317    -1.3581 H       
  33 H33            0.4874     2.4831    -4.8907 H       
  34 H34            6.7069    -4.5734    -1.2560 H       
  35 H35            5.0156    -6.2028    -1.4665 H       
  36 H36            5.6515    -6.7213     0.1303 H       
  37 H37            3.0293    -5.9179    -0.2283 H       
  38 H38            3.9120    -5.6594     1.3068 H       
  39 H39            1.8032    -3.4127     0.3844 H       
  40 H40            4.4006    -0.1977    -0.6965 H       
  41 H41            6.2767    -1.7776    -0.8658 H       
  42 H42            6.5210    -4.3408     1.6832 H       
  43 H43            8.8608    -3.9737    -1.2644 H       
  44 H44            9.6265    -2.5767     1.3393 H       
  45 H45            9.6874    -1.8510    -0.2849 H       
  46 H46            8.1222    -2.3151     0.4244 H       
  47 H47           10.8858    -5.3344    -0.8211 H       
  48 H48           11.3012    -3.6141    -1.0122 H       
  49 H49           11.2404    -4.3399     0.6119 H       
  50 H50            0.2133     4.0330    -2.5456 H       
  51 H51            0.8637     5.0750    -3.8338 H       
  52 H52           -0.7145     4.2792    -4.0446 H       
@<TRIPOS>BOND
   1    1    2 ar
   2    1    6 ar
   3    1    7 1
   4    2    3 ar
   5    2   29 1
   6    3    4 ar
   7    3   11 1
   8    4    5 ar
   9    4   30 1
  10    5    6 ar
  11    5   31 1
  12    6   32 1
  13    7    8 2
  14    7    9 2
  15    7   10 am
  16   10   28 1
  17   10   33 1
  18   11   17 1
  19   12   13 1
  20   12   20 1
  21   12   24 1
  22   12   34 1
  23   13   14 1
  24   13   35 1
  25   13   36 1
  26   14   15 1
  27   14   37 1
  28   14   38 1
  29   15   16 ar
  30   15   20 ar
  31   16   17 ar
  32   16   39 1
  33   17   18 ar
  34   18   19 ar
  35   18   40 1
  36   19   20 ar
  37   19   41 1
  38   21   22 2
  39   21   23 2
  40   21   24 am
  41   21   25 1
  42   24   42 1
  43   25   26 1
  44   25   27 1
  45   25   43 1
  46   26   44 1
  47   26   45 1
  48   26   46 1
  49   27   47 1
  50   27   48 1
  51   27   49 1
  52   28   50 1
  53   28   51 1
  54   28   52 1

#	End of record

