#	Name: ASD01810427
#	Creating user name:	WinNT
#	Creation time:	15. 06. 2019 19:24

#	Modifying user name:	WinNT
#	Modification time:	15. 06. 2019 19:24

#	Program:	/corina/corina34_cracker 3.40 0067  02.08.2006

@<TRIPOS>MOLECULE
ASD01810427
  42   45    0    0    0
SMALL
NO_CHARGES


@<TRIPOS>ATOM
   1 C1            -0.0168     1.3858     0.0097 C.ar    
   2 C2             0.0021    -0.0041     0.0020 C.ar    
   3 C3             2.2949     0.0095    -0.0194 C.ar    
   4 C4             2.2700     1.4150    -0.0120 C.ar    
   5 N5             1.1127     2.0649     0.0025 N.ar    
   6 N6             3.4932    -0.6632    -0.0335 N.pl3   
   7 C7             4.6786    -0.0389    -0.0409 C.2     
   8 C8             4.7851     1.3373    -0.0348 C.2     
   9 C9             3.5550     2.1444    -0.0204 C.2     
  10 O10            3.5943     3.3620    -0.0149 O.2     
  11 C11            6.1048     1.9853    -0.0433 C.2     
  12 C12            3.4736    -2.1281    -0.0403 C.3     
  13 C13            3.4540    -2.6236    -1.4634 C.ar    
  14 O14            7.1143     1.3083    -0.0557 O.2     
  15 O15            6.1953     3.3302    -0.0373 O.3     
  16 C16            4.6442    -2.8662    -2.1250 C.ar    
  17 C17            4.6321    -3.3201    -3.4283 C.ar    
  18 C18            3.4179    -3.5339    -4.0776 C.ar    
  19 C19            2.2219    -3.2879    -3.4063 C.ar    
  20 C20            2.2457    -2.8395    -2.1012 C.ar    
  21 C21            3.3986    -4.0214    -5.4790 C.ar    
  22 C22            2.1844    -4.2352    -6.1283 C.ar    
  23 C23            2.1722    -4.6887    -7.4318 C.ar    
  24 C24            3.3625    -4.9314    -8.0934 C.ar    
  25 C25            4.5707    -4.7213    -7.4535 C.ar    
  26 C26            4.5946    -4.2616    -6.1524 C.ar    
  27 N27            1.1458    -0.6601    -0.0120 N.ar    
  28 H28           -0.9604     1.9111     0.0170 H       
  29 H29           -0.9287    -0.5517     0.0080 H       
  30 H30            5.5809    -0.6322    -0.0515 H       
  31 H31            4.3633    -2.5057     0.4637 H       
  32 H32            2.5835    -2.4819     0.4800 H       
  33 H33            7.0844     3.7104    -0.0433 H       
  34 H34            5.5847    -2.6998    -1.6209 H       
  35 H35            5.5620    -3.5089    -3.9442 H       
  36 H36            1.2780    -3.4520    -3.9048 H       
  37 H37            1.3194    -2.6485    -1.5799 H       
  38 H38            1.2545    -4.0468    -5.6124 H       
  39 H39            1.2317    -4.8548    -7.9360 H       
  40 H40            3.3484    -5.2866    -9.1132 H       
  41 H41            5.4970    -4.9127    -7.9747 H       
  42 H42            5.5384    -4.0975    -5.6538 H       
@<TRIPOS>BOND
   1    1    2 ar
   2    1    5 ar
   3    1   28 1
   4    2   27 ar
   5    2   29 1
   6    3    4 ar
   7    3    6 1
   8    3   27 ar
   9    4    5 ar
  10    4    9 1
  11    6    7 1
  12    6   12 1
  13    7    8 2
  14    7   30 1
  15    8    9 1
  16    8   11 1
  17    9   10 2
  18   11   14 2
  19   11   15 1
  20   12   13 1
  21   12   31 1
  22   12   32 1
  23   13   16 ar
  24   13   20 ar
  25   15   33 1
  26   16   17 ar
  27   16   34 1
  28   17   18 ar
  29   17   35 1
  30   18   19 ar
  31   18   21 1
  32   19   20 ar
  33   19   36 1
  34   20   37 1
  35   21   22 ar
  36   21   26 ar
  37   22   23 ar
  38   22   38 1
  39   23   24 ar
  40   23   39 1
  41   24   25 ar
  42   24   40 1
  43   25   26 ar
  44   25   41 1
  45   26   42 1

#	End of record

