#	Name: ASD05250015
#	Creating user name:	WinNT
#	Creation time:	15. 06. 2019 20:58

#	Modifying user name:	WinNT
#	Modification time:	15. 06. 2019 20:58

#	Program:	/corina/corina34_cracker 3.40 0067  02.08.2006

@<TRIPOS>MOLECULE
ASD05250015
  55   58    0    0    0
SMALL
NO_CHARGES


@<TRIPOS>ATOM
   1 O1            -8.6277    -9.9163    -0.9652 O.3     
   2 C2            -7.2470    -9.5484    -0.9762 C.3     
   3 C3            -7.1253    -8.0233    -0.9585 C.3     
   4 C4            -5.6510    -7.6306    -0.8445 C.3     
   5 O5            -5.5450    -6.2118    -0.7108 O.3     
   6 C6            -4.2954    -5.6955    -0.5976 C.ar    
   7 C7            -4.1195    -4.3237    -0.4644 C.ar    
   8 N8            -2.9035    -3.8196    -0.3536 N.ar    
   9 C9            -1.8513    -4.6171    -0.3691 C.ar    
  10 C10           -2.0208    -5.9912    -0.5026 C.ar    
  11 N11           -3.2416    -6.5001    -0.6085 N.ar    
  12 N12           -0.9101    -6.8329    -0.5198 N.am    
  13 C13           -1.0781    -8.1700    -0.5440 C.2     
  14 O14           -2.1941    -8.6441    -0.4558 O.2     
  15 N15           -0.0089    -8.9814    -0.6659 N.am    
  16 C16           -0.1682   -10.4414    -0.6945 C.3     
  17 C17           -0.1519   -10.9470    -2.1251 C.3     
  18 C18            1.1800   -10.6937    -2.8176 C.3     
  19 O19            1.4094    -9.2979    -2.9986 O.3     
  20 C20            1.9935    -8.6391    -1.9547 C.ar    
  21 C21            1.2840    -8.4566    -0.7747 C.ar    
  22 N22            1.8239    -7.8072     0.2410 N.ar    
  23 C23            3.0583    -7.3210     0.1726 C.ar    
  24 C24            3.8264    -7.4789    -0.9775 C.ar    
  25 C25            3.2849    -8.1485    -2.0645 C.ar    
  26 C26            3.6258    -6.5995     1.3376 C.ar    
  27 C27            2.8672    -6.4341     2.4949 C.ar    
  28 C28            3.3998    -5.7619     3.5765 C.ar    
  29 C29            4.6839    -5.2525     3.5137 C.ar    
  30 C30            5.4427    -5.4136     2.3667 C.ar    
  31 C31            4.9217    -6.0895     1.2809 C.ar    
  32 Cl32           7.0537    -4.7706     2.2959 Cl      
  33 O33           -7.6688    -7.4881    -2.1669 O.3     
  34 H34           -8.7805   -10.8711    -0.9754 H       
  35 H35           -6.7536    -9.9625    -0.0968 H       
  36 H36           -6.7737    -9.9402    -1.8765 H       
  37 H37           -7.6745    -7.6249    -0.1054 H       
  38 H38           -5.2134    -8.1117     0.0303 H       
  39 H39           -5.1191    -7.9519    -1.7400 H       
  40 H40           -4.9780    -3.6686    -0.4518 H       
  41 H41           -0.8583    -4.2021    -0.2783 H       
  42 H42           -0.0161    -6.4565    -0.5144 H       
  43 H43            0.6477   -10.9041    -0.1392 H       
  44 H44           -1.1160   -10.7099    -0.2279 H       
  45 H45           -0.3498   -12.0189    -2.1225 H       
  46 H46           -0.9414   -10.4459    -2.6852 H       
  47 H47            1.9833   -11.1122    -2.2112 H       
  48 H48            1.1756   -11.1843    -3.7909 H       
  49 H49            4.8304    -7.0835    -1.0222 H       
  50 H50            3.8553    -8.2866    -2.9711 H       
  51 H51            1.8641    -6.8310     2.5453 H       
  52 H52            2.8122    -5.6331     4.4734 H       
  53 H53            5.0963    -4.7269     4.3623 H       
  54 H54            5.5139    -6.2149     0.3865 H       
  55 H55           -7.2275    -7.8002    -2.9687 H       
@<TRIPOS>BOND
   1    1    2 1
   2    1   34 1
   3    2    3 1
   4    2   35 1
   5    2   36 1
   6    3    4 1
   7    3   33 1
   8    3   37 1
   9    4    5 1
  10    4   38 1
  11    4   39 1
  12    5    6 1
  13    6    7 ar
  14    6   11 ar
  15    7    8 ar
  16    7   40 1
  17    8    9 ar
  18    9   10 ar
  19    9   41 1
  20   10   11 ar
  21   10   12 1
  22   12   13 am
  23   12   42 1
  24   13   14 2
  25   13   15 am
  26   15   16 1
  27   15   21 1
  28   16   17 1
  29   16   43 1
  30   16   44 1
  31   17   18 1
  32   17   45 1
  33   17   46 1
  34   18   19 1
  35   18   47 1
  36   18   48 1
  37   19   20 1
  38   20   21 ar
  39   20   25 ar
  40   21   22 ar
  41   22   23 ar
  42   23   24 ar
  43   23   26 1
  44   24   25 ar
  45   24   49 1
  46   25   50 1
  47   26   27 ar
  48   26   31 ar
  49   27   28 ar
  50   27   51 1
  51   28   29 ar
  52   28   52 1
  53   29   30 ar
  54   29   53 1
  55   30   31 ar
  56   30   32 1
  57   31   54 1
  58   33   55 1

#	End of record

