#	Name: ASD09116202
#	Creating user name:	WinNT
#	Creation time:	15. 06. 2019 21:21

#	Modifying user name:	WinNT
#	Modification time:	15. 06. 2019 21:21

#	Program:	/corina/corina34_cracker 3.40 0067  02.08.2006

@<TRIPOS>MOLECULE
ASD09116202
  75   81    0    0    0
SMALL
NO_CHARGES


@<TRIPOS>ATOM
   1 N1            -0.0590     1.5275    -0.5288 N.2     
   2 N2            -0.0821     0.2487    -1.1086 N.pl3   
   3 C3             1.1949     1.9112    -0.4981 C.2     
   4 N4             1.9590     0.9472    -1.0251 N.2     
   5 C5             1.2030    -0.0630    -1.3983 C.2     
   6 N6             1.6572     3.1282     0.0023 N.pl3   
   7 C7             3.0332     3.3746     0.0833 C.ar    
   8 C8             3.5136     4.6731    -0.0243 C.ar    
   9 C9             5.7565     3.8596     0.2448 C.ar    
  10 C10            5.2744     2.5630     0.3574 C.ar    
  11 C11            3.9169     2.3209     0.2769 C.ar    
  12 C12           -1.2076    -0.5442    -1.3400 C.ar    
  13 N13           -1.1865    -1.4615    -2.2954 N.ar    
  14 N14           -2.1983    -2.2106    -2.5553 N.ar    
  15 C15           -3.3304    -2.1070    -1.8779 C.ar    
  16 C16           -3.4380    -1.1807    -0.8367 C.ar    
  17 C17           -2.3543    -0.3743    -0.5600 C.ar    
  18 C18           -4.5154    -2.9311    -2.2108 C.ar    
  19 C19           -5.7516    -2.3024    -2.3685 C.ar    
  20 C20           -5.8380    -0.8053    -2.2522 C.3     
  21 C21           -5.7904    -0.3563    -0.7943 C.3     
  22 C22           -4.7029    -1.1086    -0.0319 C.3     
  23 C23           -4.4116    -4.3095    -2.3620 C.ar    
  24 C24           -5.5401    -5.0526    -2.6498 C.ar    
  25 C25           -6.7669    -4.4283    -2.7842 C.ar    
  26 C26           -6.8729    -3.0554    -2.6433 C.ar    
  27 N27            1.6431    -1.2352    -1.9832 N.pl3   
  28 C28            4.8722     4.9159     0.0562 C.ar    
  29 N29            7.1339     4.1047     0.3266 N.3     
  30 C30            7.6710     3.6637     1.6202 C.3     
  31 C31            9.1403     4.0771     1.7316 C.3     
  32 C32            9.9325     3.4420     0.5856 C.3     
  33 C33            9.3229     3.8787    -0.7494 C.3     
  34 C34            7.8483     3.4710    -0.7889 C.3     
  35 N35           11.3324     3.8822     0.6534 N.3     
  36 C36           12.1491     3.1994    -0.3606 C.3     
  37 C37           13.5836     3.7300    -0.2945 C.3     
  38 O38           14.0951     3.5435     1.0280 O.3     
  39 C39           13.3241     4.1956     2.0407 C.3     
  40 C40           11.8869     3.6698     1.9983 C.3     
  41 F41            5.3404     6.1788    -0.0488 F       
  42 H42            1.0255     3.8040     0.2943 H       
  43 H43            2.8261     5.4930    -0.1711 H       
  44 H44            5.9613     1.7425     0.5039 H       
  45 H45            3.5425     1.3117     0.3650 H       
  46 H46           -2.3931     0.3664     0.2251 H       
  47 H47           -5.0030    -0.3570    -2.7908 H       
  48 H48           -6.7725    -0.4663    -2.6994 H       
  49 H49           -5.5822     0.7129    -0.7547 H       
  50 H50           -6.7559    -0.5507    -0.3272 H       
  51 H51           -5.0495    -2.1195     0.1825 H       
  52 H52           -4.5014    -0.5929     0.9071 H       
  53 H53           -3.4536    -4.7965    -2.2555 H       
  54 H54           -5.4641    -6.1232    -2.7704 H       
  55 H55           -7.6473    -5.0154    -3.0003 H       
  56 H56           -7.8340    -2.5743    -2.7487 H       
  57 H57            2.5890    -1.3672    -2.1529 H       
  58 H58            1.0061    -1.9259    -2.2242 H       
  59 H59            7.1015     4.1259     2.4265 H       
  60 H60            7.5922     2.5792     1.6954 H       
  61 H61            9.2185     5.1626     1.6703 H       
  62 H62            9.5430     3.7359     2.6853 H       
  63 H63            9.8867     2.3561     0.6690 H       
  64 H64            9.4040     4.9611    -0.8497 H       
  65 H65            9.8560     3.3958    -1.5683 H       
  66 H66            7.7687     2.3874    -0.7024 H       
  67 H67            7.4076     3.7933    -1.7324 H       
  68 H68           12.1484     2.1268    -0.1666 H       
  69 H69           11.7353     3.3912    -1.3506 H       
  70 H70           14.2059     3.1864    -1.0054 H       
  71 H71           13.5908     4.7917    -0.5411 H       
  72 H72           13.7586     3.9887     3.0188 H       
  73 H73           13.3236     5.2709     1.8620 H       
  74 H74           11.2817     4.2048     2.7302 H       
  75 H75           11.8820     2.6047     2.2299 H       
@<TRIPOS>BOND
   1    1    2 1
   2    1    3 2
   3    2   12 1
   4    2    5 1
   5    3    4 1
   6    3    6 1
   7    4    5 2
   8    5   27 1
   9    6    7 1
  10    6   42 1
  11    7    8 ar
  12    7   11 ar
  13    8   28 ar
  14    8   43 1
  15    9   10 ar
  16    9   28 ar
  17    9   29 1
  18   10   11 ar
  19   10   44 1
  20   11   45 1
  21   12   13 ar
  22   12   17 ar
  23   13   14 ar
  24   14   15 ar
  25   15   16 ar
  26   15   18 1
  27   16   17 ar
  28   16   22 1
  29   17   46 1
  30   18   19 ar
  31   18   23 ar
  32   19   20 1
  33   19   26 ar
  34   20   21 1
  35   20   47 1
  36   20   48 1
  37   21   22 1
  38   21   49 1
  39   21   50 1
  40   22   51 1
  41   22   52 1
  42   23   24 ar
  43   23   53 1
  44   24   25 ar
  45   24   54 1
  46   25   26 ar
  47   25   55 1
  48   26   56 1
  49   27   57 1
  50   27   58 1
  51   28   41 1
  52   29   30 1
  53   29   34 1
  54   30   31 1
  55   30   59 1
  56   30   60 1
  57   31   32 1
  58   31   61 1
  59   31   62 1
  60   32   33 1
  61   32   35 1
  62   32   63 1
  63   33   34 1
  64   33   64 1
  65   33   65 1
  66   34   66 1
  67   34   67 1
  68   35   36 1
  69   35   40 1
  70   36   37 1
  71   36   68 1
  72   36   69 1
  73   37   38 1
  74   37   70 1
  75   37   71 1
  76   38   39 1
  77   39   40 1
  78   39   72 1
  79   39   73 1
  80   40   74 1
  81   40   75 1

#	End of record

