#	Name: ASD01884915
#	Creating user name:	WinNT
#	Creation time:	15. 06. 2019 19:49

#	Modifying user name:	WinNT
#	Modification time:	15. 06. 2019 19:49

#	Program:	/corina/corina34_cracker 3.40 0067  02.08.2006

@<TRIPOS>MOLECULE
ASD01884915
  41   45    0    0    0
SMALL
NO_CHARGES


@<TRIPOS>ATOM
   1 C1             1.0279     1.4863     0.6827 C.ar    
   2 C2             0.9118     0.1157     0.7710 C.ar    
   3 C3             1.5075    -0.6940    -0.1956 C.ar    
   4 C4             2.2155    -0.1096    -1.2433 C.ar    
   5 C5             2.3269     1.2663    -1.3228 C.ar    
   6 C6             1.7336     2.0647    -0.3612 C.ar    
   7 C7             1.3883    -2.1687    -0.1085 C.2     
   8 C8             0.6586    -2.8666    -1.0520 C.2     
   9 C9             2.0258    -2.8768     0.9391 C.2     
  10 C10            1.9170    -4.2165     1.0160 C.2     
  11 N11            1.1940    -4.9136     0.0914 N.pl3   
  12 C12            0.5642    -4.2646    -0.9430 C.2     
  13 C13            0.9177    -6.2360    -0.0766 C.2     
  14 N14            0.1675    -6.3496    -1.1423 N.2     
  15 N15           -0.0474    -5.1927    -1.6628 N.2     
  16 C16            1.3903    -7.3637     0.8043 C.3     
  17 C17            0.3232    -8.2209     1.4880 C.3     
  18 C18            1.1323    -8.7926     0.3221 C.3     
  19 C19            3.0312     2.1337    -2.3443 C.3     
  20 C20            2.4401     3.5462    -2.1511 C.3     
  21 C21            2.0003     3.5224    -0.6721 C.3     
  22 H22            3.1996     4.3101    -2.3173 H       
  23 C23           -0.0259    -2.1395    -2.1805 C.3     
  24 F24            0.8974    -1.8873    -3.2009 F       
  25 F25           -1.0682    -2.9283    -2.6792 F       
  26 F26           -0.5426    -0.9278    -1.7092 F       
  27 H27            0.5628     2.1136     1.4288 H       
  28 H28            0.3615    -0.3299     1.5865 H       
  29 H29            2.6786    -0.7322    -1.9945 H       
  30 H30            2.6016    -2.3404     1.6787 H       
  31 H31            2.4081    -4.7462     1.8189 H       
  32 H32            2.3131    -7.1763     1.3533 H       
  33 H33            0.5442    -8.5977     2.4867 H       
  34 H34           -0.7207    -7.9692     1.3007 H       
  35 H35            0.6207    -8.9170    -0.6323 H       
  36 H36            1.8856    -9.5456     0.5537 H       
  37 H37            4.1048     2.1440    -2.1559 H       
  38 H38            2.8268     1.7728    -3.3523 H       
  39 H39            1.5835     3.7008    -2.8073 H       
  40 H40            1.0921     4.1100    -0.5381 H       
  41 H41            2.7970     3.9054    -0.0345 H       
@<TRIPOS>BOND
   1    1    2 ar
   2    1    6 ar
   3    1   27 1
   4    2    3 ar
   5    2   28 1
   6    3    4 ar
   7    3    7 1
   8    4    5 ar
   9    4   29 1
  10    5    6 ar
  11    5   19 1
  12    6   21 1
  13    7    8 2
  14    7    9 1
  15    8   23 1
  16    8   12 1
  17    9   10 2
  18    9   30 1
  19   10   11 1
  20   10   31 1
  21   11   12 1
  22   11   13 1
  23   12   15 2
  24   13   14 2
  25   13   16 1
  26   14   15 1
  27   16   17 1
  28   16   18 1
  29   16   32 1
  30   17   18 1
  31   17   33 1
  32   17   34 1
  33   18   35 1
  34   18   36 1
  35   19   20 1
  36   19   37 1
  37   19   38 1
  38   20   21 1
  39   20   22 1
  40   20   39 1
  41   21   40 1
  42   21   41 1
  43   23   24 1
  44   23   25 1
  45   23   26 1

#	End of record

