#	Name: ASD01028170
#	Creating user name:	WinNT
#	Creation time:	15. 06. 2019 18:56

#	Modifying user name:	WinNT
#	Modification time:	15. 06. 2019 18:56

#	Program:	/corina/corina34_cracker 3.40 0067  02.08.2006

@<TRIPOS>MOLECULE
ASD01028170
  65   69    0    0    0
SMALL
NO_CHARGES


@<TRIPOS>ATOM
   1 C1            -0.4852     1.8025    -0.6066 C.2     
   2 C2             0.1478     0.4716    -0.6334 C.ar    
   3 C3            -0.0741    -0.4443     0.4018 C.ar    
   4 C4             0.5433    -1.6800     0.3295 C.ar    
   5 C5             1.3547    -1.9744    -0.7522 C.ar    
   6 N6             1.5517    -1.0981    -1.7173 N.ar    
   7 C7             0.9806     0.0967    -1.7016 C.ar    
   8 O8            -0.1775     2.6390    -1.4340 O.2     
   9 N9            -1.4091     2.0905     0.3315 N.am    
  10 N10            1.2099     0.9828    -2.7392 N.pl3   
  11 N11            4.4961     2.1729    -6.2258 N.pl3   
  12 N12            5.2858     1.3101    -6.9955 N.2     
  13 C13            5.0394     0.0757    -6.6658 C.2     
  14 C14            4.0579     0.0662    -5.6449 C.ar    
  15 C15            3.4247    -0.9562    -4.9252 C.ar    
  16 C16            2.4955    -0.6463    -3.9782 C.ar    
  17 C17            2.1656     0.6846    -3.7144 C.ar    
  18 C18            2.7780     1.7095    -4.4120 C.ar    
  19 C19            3.7288     1.4099    -5.3827 C.ar    
  20 N20           -4.9520     5.3897     1.2683 N.am    
  21 C21           -4.9763     6.8542     1.3118 C.3     
  22 C22           -3.5408     7.2915     0.9782 C.3     
  23 C23           -2.7882     5.9972     0.7641 C.ar    
  24 C24           -1.4647     5.7630     0.4397 C.ar    
  25 C25           -1.0024     4.4699     0.2949 C.ar    
  26 C26           -1.8726     3.4019     0.4770 C.ar    
  27 C27           -3.1985     3.6349     0.8020 C.ar    
  28 C28           -3.6668     4.9409     0.9481 C.ar    
  29 C29           -3.5231     8.1362    -0.2974 C.3     
  30 C30           -2.9361     8.0735     2.1460 C.3     
  31 C31           -6.0117     4.5920     1.5077 C.2     
  32 O32           -7.0875     5.0793     1.7839 O.2     
  33 C33           -5.8599     3.0946     1.4321 C.3     
  34 N34           -7.1485     2.4560     1.7317 N.3     
  35 C35           -8.1407     2.7596     0.6919 C.3     
  36 C36           -6.9904     1.0054     1.9010 C.3     
  37 H37           -0.7113    -0.1921     1.2365 H       
  38 H38            0.3935    -2.4096     1.1116 H       
  39 H39            1.8358    -2.9399    -0.8067 H       
  40 H40           -1.7525     1.3882     0.9057 H       
  41 H41            0.7073     1.8109    -2.7899 H       
  42 H42            4.4948     3.1415    -6.2770 H       
  43 H43            5.5055    -0.7968    -7.0993 H       
  44 H44            3.6724    -1.9889    -5.1218 H       
  45 H45            2.0101    -1.4373    -3.4260 H       
  46 H46            2.5192     2.7373    -4.2048 H       
  47 H47           -5.6724     7.2430     0.5685 H       
  48 H48           -5.2545     7.1983     2.3079 H       
  49 H49           -0.7901     6.5944     0.2987 H       
  50 H50            0.0317     4.2892     0.0412 H       
  51 H51           -3.8724     2.8027     0.9425 H       
  52 H52           -4.1401     9.0233    -0.1542 H       
  53 H53           -2.4994     8.4376    -0.5194 H       
  54 H54           -3.9172     7.5496    -1.1272 H       
  55 H55           -2.9174     7.4427     3.0347 H       
  56 H56           -1.9197     8.3756     1.8934 H       
  57 H57           -3.5405     8.9592     2.3418 H       
  58 H58           -5.5387     2.8121     0.4295 H       
  59 H59           -5.1150     2.7678     2.1578 H       
  60 H60           -7.7834     2.3915    -0.2699 H       
  61 H61           -9.0853     2.2747     0.9384 H       
  62 H62           -8.2897     3.8379     0.6356 H       
  63 H63           -6.3031     0.8084     2.7238 H       
  64 H64           -7.9593     0.5577     2.1219 H       
  65 H65           -6.5914     0.5738     0.9831 H       
@<TRIPOS>BOND
   1    1    2 1
   2    1    8 2
   3    1    9 am
   4    2    3 ar
   5    2    7 ar
   6    3    4 ar
   7    3   37 1
   8    4    5 ar
   9    4   38 1
  10    5    6 ar
  11    5   39 1
  12    6    7 ar
  13    7   10 1
  14    9   26 1
  15    9   40 1
  16   10   17 1
  17   10   41 1
  18   11   12 1
  19   11   19 1
  20   11   42 1
  21   12   13 2
  22   13   14 1
  23   13   43 1
  24   14   15 ar
  25   14   19 ar
  26   15   16 ar
  27   15   44 1
  28   16   17 ar
  29   16   45 1
  30   17   18 ar
  31   18   19 ar
  32   18   46 1
  33   20   21 1
  34   20   28 1
  35   20   31 am
  36   21   22 1
  37   21   47 1
  38   21   48 1
  39   22   23 1
  40   22   29 1
  41   22   30 1
  42   23   24 ar
  43   23   28 ar
  44   24   25 ar
  45   24   49 1
  46   25   26 ar
  47   25   50 1
  48   26   27 ar
  49   27   28 ar
  50   27   51 1
  51   29   52 1
  52   29   53 1
  53   29   54 1
  54   30   55 1
  55   30   56 1
  56   30   57 1
  57   31   32 2
  58   31   33 1
  59   33   34 1
  60   33   58 1
  61   33   59 1
  62   34   35 1
  63   34   36 1
  64   35   60 1
  65   35   61 1
  66   35   62 1
  67   36   63 1
  68   36   64 1
  69   36   65 1

#	End of record

