#	Name: ASD01150169
#	Creating user name:	WinNT
#	Creation time:	15. 06. 2019 19:03

#	Modifying user name:	WinNT
#	Modification time:	15. 06. 2019 19:03

#	Program:	/corina/corina34_cracker 3.40 0067  02.08.2006

@<TRIPOS>MOLECULE
ASD01150169
  58   61    0    0    0
SMALL
NO_CHARGES


@<TRIPOS>ATOM
   1 N1             1.5814     2.6515     0.9766 N.pl3   
   2 C2             1.1373     1.3488     0.8693 C.2     
   3 C3            -0.2398     1.3917     1.0474 C.2     
   4 N4            -0.5733     2.6690     1.2491 N.2     
   5 C5             0.4993     3.4181     1.2142 C.2     
   6 C6             1.7622     0.1049     0.6357 C.2     
   7 N7             1.0081    -1.0131     0.5908 N.am    
   8 C8            -0.3237    -0.9571     0.7645 C.2     
   9 N9            -0.9586     0.2086     0.9900 N.am    
  10 O10            2.9680     0.0415     0.4761 O.2     
  11 C11           -2.4119     0.2262     1.1741 C.3     
  12 O12           -0.9713    -1.9852     0.7171 O.2     
  13 C13            1.6503    -2.3074     0.3488 C.3     
  14 C14            2.0460    -2.9258     1.6648 C.ar    
  15 C15            1.1582    -3.7510     2.3327 C.ar    
  16 C16            1.5138    -4.3203     3.5375 C.ar    
  17 C17            2.7733    -4.0622     4.0835 C.ar    
  18 C18            3.6644    -3.2282     3.4039 C.ar    
  19 C19            3.2976    -2.6702     2.1971 C.ar    
  20 C20            0.5195     4.9133     1.4012 C.3     
  21 C21            0.6976     5.2394     2.8854 C.3     
  22 C22            2.9673     3.1122     0.8603 C.3     
  23 C23           -2.7401     0.0542     2.6585 C.3     
  24 C24           -4.2578     0.0726     2.8507 C.3     
  25 C25            3.1612    -4.6680     5.3740 C.2     
  26 O26            4.3364    -4.7987     5.6552 O.2     
  27 C27            2.1204    -5.1150     6.3227 C.ar    
  28 C28            2.4179    -6.0814     7.2864 C.ar    
  29 C29            1.4414    -6.4940     8.1687 C.ar    
  30 C30            0.1695    -5.9529     8.1009 C.ar    
  31 C31           -0.1323    -4.9954     7.1484 C.ar    
  32 C32            0.8361    -4.5690     6.2637 C.ar    
  33 H33           -2.8113     1.1770     0.8214 H       
  34 H34           -2.8599    -0.5892     0.6061 H       
  35 H35            0.9537    -2.9676    -0.1680 H       
  36 H36            2.5384    -2.1629    -0.2665 H       
  37 H37            0.1846    -3.9494     1.9095 H       
  38 H38            0.8199    -4.9638     4.0579 H       
  39 H39            4.6396    -3.0242     3.8206 H       
  40 H40            3.9855    -2.0253     1.6706 H       
  41 H41            1.3470     5.3393     0.8338 H       
  42 H42           -0.4203     5.3366     1.0464 H       
  43 H43           -0.1299     4.8134     3.4528 H       
  44 H44            1.6373     4.8161     3.2401 H       
  45 H45            0.7122     6.3208     3.0206 H       
  46 H46            3.1840     3.3531    -0.1804 H       
  47 H47            3.1076     4.0009     1.4757 H       
  48 H48            3.6413     2.3255     1.1991 H       
  49 H49           -2.3406    -0.8966     3.0112 H       
  50 H50           -2.2920     0.8696     3.2265 H       
  51 H51           -4.4916    -0.0499     3.9083 H       
  52 H52           -4.6573     1.0235     2.4981 H       
  53 H53           -4.7059    -0.7428     2.2828 H       
  54 H54            3.4100    -6.5047     7.3402 H       
  55 H55            1.6699    -7.2414     8.9141 H       
  56 H56           -0.5913    -6.2797     8.7943 H       
  57 H57           -1.1270    -4.5776     7.1008 H       
  58 H58            0.5994    -3.8214     5.5210 H       
@<TRIPOS>BOND
   1    1    2 1
   2    1   22 1
   3    1    5 1
   4    2    3 2
   5    2    6 1
   6    3    4 1
   7    3    9 1
   8    4    5 2
   9    5   20 1
  10    6    7 am
  11    6   10 2
  12    7    8 am
  13    7   13 1
  14    8    9 am
  15    8   12 2
  16    9   11 1
  17   11   23 1
  18   11   33 1
  19   11   34 1
  20   13   14 1
  21   13   35 1
  22   13   36 1
  23   14   15 ar
  24   14   19 ar
  25   15   16 ar
  26   15   37 1
  27   16   17 ar
  28   16   38 1
  29   17   18 ar
  30   17   25 1
  31   18   19 ar
  32   18   39 1
  33   19   40 1
  34   20   21 1
  35   20   41 1
  36   20   42 1
  37   21   43 1
  38   21   44 1
  39   21   45 1
  40   22   46 1
  41   22   47 1
  42   22   48 1
  43   23   24 1
  44   23   49 1
  45   23   50 1
  46   24   51 1
  47   24   52 1
  48   24   53 1
  49   25   26 2
  50   25   27 1
  51   27   28 ar
  52   27   32 ar
  53   28   29 ar
  54   28   54 1
  55   29   30 ar
  56   29   55 1
  57   30   31 ar
  58   30   56 1
  59   31   32 ar
  60   31   57 1
  61   32   58 1

#	End of record

