#	Name: ASD01916576
#	Creating user name:	WinNT
#	Creation time:	15. 06. 2019 20:07

#	Modifying user name:	WinNT
#	Modification time:	15. 06. 2019 20:07

#	Program:	/corina/corina34_cracker 3.40 0067  02.08.2006

@<TRIPOS>MOLECULE
ASD01916576
  49   53    0    0    0
SMALL
NO_CHARGES


@<TRIPOS>ATOM
   1 C1            -0.0171     1.4097     0.0098 C.ar    
   2 C2             0.0021    -0.0041     0.0020 C.ar    
   3 C3            -1.1913    -0.7265     0.0037 C.ar    
   4 C4            -2.3847    -0.0658     0.0096 C.ar    
   5 C5            -2.4224     1.3369     0.0165 C.ar    
   6 C6            -1.2415     2.0754     0.0185 C.ar    
   7 N7             1.1587     2.0868     0.0022 N.2     
   8 C8             2.3035     1.4746    -0.0328 C.2     
   9 N9             2.4081     0.1117    -0.0407 N.am    
  10 C10            1.3118    -0.6722    -0.0134 C.2     
  11 C11           -3.6841     2.0140     0.0221 C.1     
  12 O12            1.4025    -1.8862    -0.0020 O.2     
  13 C13           -4.7186     2.5692     0.0267 C.1     
  14 C14           -5.9804     3.2463     0.0323 C.ar    
  15 N15           -6.0162     4.5753     0.0389 N.ar    
  16 C16           -7.1562     5.2345     0.0437 C.ar    
  17 C17           -8.3657     4.5633     0.0421 C.ar    
  18 C18           -8.3755     3.1749     0.0353 C.ar    
  19 C19           -7.1652     2.5055     0.0250 C.ar    
  20 C20            3.5847     2.2776    -0.0832 C.3     
  21 C21            4.1709     2.1915    -1.4897 C.3     
  22 C22            5.0799     0.9812    -1.6371 C.3     
  23 C23            4.3189    -0.3280    -1.4933 C.3     
  24 C24            3.7491    -0.4840    -0.0858 C.3     
  25 C25            5.7591     1.0240    -3.0224 C.3     
  26 C26            7.2729     1.0590    -2.7033 C.3     
  27 C27            7.3135     0.4914    -1.2617 C.3     
  28 O28            6.1260     1.0398    -0.6512 O.3     
  29 H29           -1.1704    -1.8063     0.0001 H       
  30 H30           -3.3077    -0.6266     0.0085 H       
  31 H31           -1.2744     3.1549     0.0263 H       
  32 H32           -7.1467     6.3144     0.0494 H       
  33 H33           -9.2944     5.1144     0.0465 H       
  34 H34           -9.3077     2.6296     0.0339 H       
  35 H35           -7.1362     1.4259     0.0194 H       
  36 H36            3.3725     3.3186     0.1603 H       
  37 H37            4.2978     1.8720     0.6345 H       
  38 H38            3.3574     2.1168    -2.2113 H       
  39 H39            4.7448     3.0956    -1.6930 H       
  40 H40            3.5012    -0.3469    -2.2138 H       
  41 H41            4.9944    -1.1583    -1.6993 H       
  42 H42            4.3976     0.0240     0.6281 H       
  43 H43            3.6863    -1.5425     0.1666 H       
  44 H44            5.5110     0.1312    -3.5965 H       
  45 H45            5.4628     1.9218    -3.5648 H       
  46 H46            7.8299     0.4203    -3.3888 H       
  47 H47            7.6526     2.0804    -2.7301 H       
  48 H48            7.2697    -0.5976    -1.2765 H       
  49 H49            8.2069     0.8337    -0.7394 H       
@<TRIPOS>BOND
   1    1    2 ar
   2    1    7 1
   3    1    6 ar
   4    2    3 ar
   5    2   10 1
   6    3    4 ar
   7    3   29 1
   8    4    5 ar
   9    4   30 1
  10    5    6 ar
  11    5   11 1
  12    6   31 1
  13    7    8 2
  14    8    9 1
  15    8   20 1
  16    9   10 am
  17    9   24 1
  18   10   12 2
  19   11   13 3
  20   13   14 1
  21   14   15 ar
  22   14   19 ar
  23   15   16 ar
  24   16   17 ar
  25   16   32 1
  26   17   18 ar
  27   17   33 1
  28   18   19 ar
  29   18   34 1
  30   19   35 1
  31   20   21 1
  32   20   36 1
  33   20   37 1
  34   21   22 1
  35   21   38 1
  36   21   39 1
  37   22   23 1
  38   22   25 1
  39   22   28 1
  40   23   24 1
  41   23   40 1
  42   23   41 1
  43   24   42 1
  44   24   43 1
  45   25   26 1
  46   25   44 1
  47   25   45 1
  48   26   27 1
  49   26   46 1
  50   26   47 1
  51   27   28 1
  52   27   48 1
  53   27   49 1

#	End of record

