#	Name: ASD01910865
#	Creating user name:	WinNT
#	Creation time:	15. 06. 2019 19:56

#	Modifying user name:	WinNT
#	Modification time:	15. 06. 2019 19:56

#	Program:	/corina/corina34_cracker 3.40 0067  02.08.2006

@<TRIPOS>MOLECULE
ASD01910865
  52   55    0    0    0
SMALL
NO_CHARGES


@<TRIPOS>ATOM
   1 C1             0.0727     1.7564    -0.3726 C.ar    
   2 C2             0.0157     0.3753    -0.3999 C.ar    
   3 C3             1.1799    -0.3666    -0.3543 C.ar    
   4 C4             2.4088     0.2765    -0.2810 C.ar    
   5 C5             2.4625     1.6645    -0.2538 C.ar    
   6 C6             1.2947     2.4000    -0.2996 C.ar    
   7 N7             3.5881    -0.4706    -0.2342 N.3     
   8 C8             4.7642     0.4063    -0.1595 C.3     
   9 C9             6.0176    -0.4443     0.0720 C.3     
  10 N10            6.0789    -1.4795    -0.9710 N.am    
  11 C11            4.8863    -2.3096    -1.1985 C.3     
  12 C12            3.6774    -1.3855    -1.3800 C.3     
  13 C13            7.1981    -1.6623    -1.6993 C.2     
  14 C14            7.2827    -2.7873    -2.6552 C.ar    
  15 C15            7.9016    -2.6076    -3.8943 C.ar    
  16 C16            7.9814    -3.6566    -4.7893 C.ar    
  17 C17            7.4511    -4.8893    -4.4669 C.ar    
  18 C18            6.8285    -5.0839    -3.2298 C.ar    
  19 C19            6.7503    -4.0301    -2.3194 C.ar    
  20 C20            6.2778    -6.3630    -2.8965 C.1     
  21 O21            8.1380    -0.9024    -1.5703 O.2     
  22 C22            5.8262    -7.4117    -2.6233 C.1     
  23 C23            5.2755    -8.6909    -2.2900 C.ar    
  24 N24            4.6850    -8.8686    -1.1120 N.ar    
  25 C25            4.1662   -10.0296    -0.7689 C.ar    
  26 C26            4.2173   -11.1127    -1.6272 C.ar    
  27 C27            4.8247   -10.9721    -2.8680 C.ar    
  28 C28            5.3573    -9.7418    -3.2074 C.ar    
  29 C29           -1.3182    -0.3216    -0.4789 C.3     
  30 F30           -2.3412     0.6320    -0.5133 F       
  31 F31           -1.3687    -1.1017    -1.6391 F       
  32 F32           -1.4829    -1.1420     0.6423 F       
  33 H33           -0.8389     2.3342    -0.4130 H       
  34 H34            1.1347    -1.4454    -0.3752 H       
  35 H35            3.4164     2.1676    -0.1968 H       
  36 H36            1.3357     3.4790    -0.2789 H       
  37 H37            4.8665     0.9580    -1.0940 H       
  38 H38            4.6431     1.1078     0.6660 H       
  39 H39            6.9044     0.1868     0.0140 H       
  40 H40            5.9639    -0.9159     1.0532 H       
  41 H41            5.0250    -2.9116    -2.0965 H       
  42 H42            4.7238    -2.9605    -0.3394 H       
  43 H43            2.7681    -1.9836    -1.4397 H       
  44 H44            3.7949    -0.8089    -2.2976 H       
  45 H45            8.3185    -1.6456    -4.1536 H       
  46 H46            8.4609    -3.5114    -5.7460 H       
  47 H47            7.5167    -5.7052    -5.1715 H       
  48 H48            6.2707    -4.1742    -1.3625 H       
  49 H49            3.6944   -10.1374     0.1967 H       
  50 H50            3.7887   -12.0599    -1.3349 H       
  51 H51            4.8762   -11.8041    -3.5546 H       
  52 H52            5.8364    -9.5974    -4.1644 H       
@<TRIPOS>BOND
   1    1    2 ar
   2    1    6 ar
   3    1   33 1
   4    2    3 ar
   5    2   29 1
   6    3    4 ar
   7    3   34 1
   8    4    5 ar
   9    4    7 1
  10    5    6 ar
  11    5   35 1
  12    6   36 1
  13    7    8 1
  14    7   12 1
  15    8    9 1
  16    8   37 1
  17    8   38 1
  18    9   10 1
  19    9   39 1
  20    9   40 1
  21   10   11 1
  22   10   13 am
  23   11   12 1
  24   11   41 1
  25   11   42 1
  26   12   43 1
  27   12   44 1
  28   13   14 1
  29   13   21 2
  30   14   15 ar
  31   14   19 ar
  32   15   16 ar
  33   15   45 1
  34   16   17 ar
  35   16   46 1
  36   17   18 ar
  37   17   47 1
  38   18   19 ar
  39   18   20 1
  40   19   48 1
  41   20   22 3
  42   22   23 1
  43   23   24 ar
  44   23   28 ar
  45   24   25 ar
  46   25   26 ar
  47   25   49 1
  48   26   27 ar
  49   26   50 1
  50   27   28 ar
  51   27   51 1
  52   28   52 1
  53   29   30 1
  54   29   31 1
  55   29   32 1

#	End of record

