#	Name: ASD04750008
#	Creating user name:	WinNT
#	Creation time:	15. 06. 2019 20:52

#	Modifying user name:	WinNT
#	Modification time:	15. 06. 2019 20:52

#	Program:	/corina/corina34_cracker 3.40 0067  02.08.2006

@<TRIPOS>MOLECULE
ASD04750008
  51   54    0    0    0
SMALL
NO_CHARGES


@<TRIPOS>ATOM
   1 C1             0.0405     2.6903     3.0374 C.ar    
   2 C2             0.6097     1.4723     2.6844 C.ar    
   3 C3            -0.1242     0.5448     1.9816 C.ar    
   4 C4            -1.4484     0.8253     1.6193 C.ar    
   5 C5            -2.0139     2.0503     1.9769 C.ar    
   6 C6            -1.2743     2.9720     2.6853 C.ar    
   7 C7            -2.4352     0.0153     0.8776 C.2     
   8 C8            -3.6796     0.7779     0.7688 C.2     
   9 C9            -3.4346     2.0936     1.4694 C.3     
  10 C10           -4.8200     0.3838     0.1626 C.2     
  11 C11           -5.9350     1.3307     0.0061 C.ar    
  12 C12           -5.6802     2.6753    -0.2840 C.ar    
  13 C13           -7.2559     0.8901     0.1407 C.ar    
  14 C14           -8.2953     1.7837    -0.0080 C.ar    
  15 C15           -8.0346     3.1135    -0.2897 C.ar    
  16 C16           -6.7307     3.5563    -0.4296 C.ar    
  17 O17           -2.2453    -1.1012     0.4308 O.2     
  18 N18           -4.3669     2.2467     2.5942 N.3     
  19 C19           -4.1674     1.1866     3.5914 C.3     
  20 C20           -4.0491     1.8112     4.9831 C.3     
  21 C21           -3.8412     0.7071     6.0216 C.3     
  22 C22           -5.0334    -0.2515     5.9925 C.3     
  23 C23           -5.1516    -0.8761     4.6008 C.3     
  24 C24           -5.3595     0.2280     3.5622 C.3     
  25 O25            0.7671     3.6028     3.7310 O.3     
  26 C26            2.1097     3.2448     4.0647 C.3     
  27 H27            1.6303     1.2537     2.9621 H       
  28 H28            0.3210    -0.4005     1.7086 H       
  29 H29           -1.7147     3.9188     2.9609 H       
  30 H30           -3.5559     2.9190     0.7678 H       
  31 H31           -4.9136    -0.6266    -0.2072 H       
  32 H32           -4.6633     3.0223    -0.3931 H       
  33 H33           -7.4609    -0.1473     0.3602 H       
  34 H34           -9.3156     1.4450     0.0953 H       
  35 H35           -8.8531     3.8086    -0.4050 H       
  36 H36           -6.5354     4.5956    -0.6494 H       
  37 H37           -4.2795     3.1597     3.0147 H       
  38 H38           -3.2542     0.6379     3.3606 H       
  39 H39           -3.1998     2.4941     5.0038 H       
  40 H40           -4.9622     2.3599     5.2139 H       
  41 H41           -2.9281     0.1584     5.7908 H       
  42 H42           -3.7569     1.1521     7.0131 H       
  43 H43           -4.8853    -1.0381     6.7324 H       
  44 H44           -5.9465     0.2972     6.2233 H       
  45 H45           -4.2385    -1.4248     4.3700 H       
  46 H46           -6.0009    -1.5590     4.5800 H       
  47 H47           -6.2726     0.7767     3.7930 H       
  48 H48           -5.4438    -0.2170     2.5708 H       
  49 H49            2.1035     2.3457     4.6810 H       
  50 H50            2.6730     3.0552     3.1511 H       
  51 H51            2.5767     4.0604     4.6168 H       
@<TRIPOS>BOND
   1    1    2 ar
   2    1   25 1
   3    1    6 ar
   4    2    3 ar
   5    2   27 1
   6    3    4 ar
   7    3   28 1
   8    4    5 ar
   9    4    7 1
  10    5    6 ar
  11    5    9 1
  12    6   29 1
  13    7    8 1
  14    7   17 2
  15    8    9 1
  16    8   10 2
  17    9   18 1
  18    9   30 1
  19   10   11 1
  20   10   31 1
  21   11   12 ar
  22   11   13 ar
  23   12   16 ar
  24   12   32 1
  25   13   14 ar
  26   13   33 1
  27   14   15 ar
  28   14   34 1
  29   15   16 ar
  30   15   35 1
  31   16   36 1
  32   18   19 1
  33   18   37 1
  34   19   20 1
  35   19   24 1
  36   19   38 1
  37   20   21 1
  38   20   39 1
  39   20   40 1
  40   21   22 1
  41   21   41 1
  42   21   42 1
  43   22   23 1
  44   22   43 1
  45   22   44 1
  46   23   24 1
  47   23   45 1
  48   23   46 1
  49   24   47 1
  50   24   48 1
  51   25   26 1
  52   26   49 1
  53   26   50 1
  54   26   51 1

#	End of record

