#	Name: ASD01916149
#	Creating user name:	WinNT
#	Creation time:	15. 06. 2019 20:06

#	Modifying user name:	WinNT
#	Modification time:	15. 06. 2019 20:06

#	Program:	/corina/corina34_cracker 3.40 0067  02.08.2006

@<TRIPOS>MOLECULE
ASD01916149
  45   48    0    0    0
SMALL
NO_CHARGES


@<TRIPOS>ATOM
   1 C1             0.0781     1.3894    -0.0544 C.ar    
   2 C2             0.0833     0.0081    -0.0546 C.ar    
   3 C3             1.2877    -0.6812    -0.0527 C.ar    
   4 C4             2.4849     0.0185    -0.0505 C.ar    
   5 C5             2.4756     1.4023    -0.0502 C.ar    
   6 C6             1.2719     2.0868    -0.0521 C.ar    
   7 O7             1.2938    -2.0401    -0.0525 O.3     
   8 C8             2.5700    -2.6831    -0.0505 C.3     
   9 C9             2.3794    -4.1780    -0.0506 C.2     
  10 C10            1.1496    -4.8486    -0.0524 C.2     
  11 N11            3.3353    -5.0738    -0.0547 N.2     
  12 N12            2.7455    -6.3407    -0.0577 N.pl3   
  13 C13            1.4031    -6.1709    -0.0511 C.2     
  14 C14            3.4269    -7.6381    -0.0753 C.3     
  15 C15            2.4525    -8.7268     0.3872 C.3     
  16 N16            1.1633    -8.5457    -0.2973 N.am    
  17 C17            0.4076    -7.3067    -0.0381 C.3     
  18 C18            0.6870    -9.4832    -1.1403 C.2     
  19 C19           -0.6680    -9.3411    -1.7148 C.ar    
  20 O20            1.3715   -10.4455    -1.4284 O.2     
  21 C21           -0.9252    -9.7756    -3.0169 C.ar    
  22 C22           -3.2084    -9.0815    -2.8118 C.ar    
  23 C23           -2.9666    -8.6484    -1.5052 C.ar    
  24 C24           -1.6924    -8.7787    -0.9561 C.ar    
  25 C25           -2.1900    -9.6434    -3.5554 C.ar    
  26 F26            3.6411     2.0856    -0.0481 F       
  27 C27           -4.0239    -8.0658    -0.7350 C.1     
  28 N28           -4.8627    -7.6035    -0.1240 N.1     
  29 H29           -0.8595     1.9253    -0.0604 H       
  30 H30           -0.8500    -0.5354    -0.0560 H       
  31 H31            3.4234    -0.5159    -0.0486 H       
  32 H32            1.2655     3.1668    -0.0519 H       
  33 H33            3.1271    -2.3878    -0.9396 H       
  34 H34            3.1243    -2.3876     0.8403 H       
  35 H35            0.1730    -4.3875    -0.0544 H       
  36 H36            3.7646    -7.8582    -1.0880 H       
  37 H37            4.2846    -7.6079     0.5967 H       
  38 H38            2.8598    -9.7078     0.1426 H       
  39 H39            2.3064    -8.6508     1.4647 H       
  40 H40           -0.0755    -7.3630     0.9374 H       
  41 H41           -0.3405    -7.1576    -0.8167 H       
  42 H42           -0.1330   -10.2158    -3.6043 H       
  43 H43           -4.1953    -8.9812    -3.2389 H       
  44 H44           -1.5000    -8.4455     0.0530 H       
  45 H45           -2.3832    -9.9807    -4.5630 H       
@<TRIPOS>BOND
   1    1    2 ar
   2    1    6 ar
   3    1   29 1
   4    2    3 ar
   5    2   30 1
   6    3    4 ar
   7    3    7 1
   8    4    5 ar
   9    4   31 1
  10    5    6 ar
  11    5   26 1
  12    6   32 1
  13    7    8 1
  14    8    9 1
  15    8   33 1
  16    8   34 1
  17    9   10 1
  18    9   11 2
  19   10   13 2
  20   10   35 1
  21   11   12 1
  22   12   13 1
  23   12   14 1
  24   13   17 1
  25   14   15 1
  26   14   36 1
  27   14   37 1
  28   15   16 1
  29   15   38 1
  30   15   39 1
  31   16   17 1
  32   16   18 am
  33   17   40 1
  34   17   41 1
  35   18   19 1
  36   18   20 2
  37   19   21 ar
  38   19   24 ar
  39   21   25 ar
  40   21   42 1
  41   22   23 ar
  42   22   25 ar
  43   22   43 1
  44   23   24 ar
  45   23   27 1
  46   24   44 1
  47   25   45 1
  48   27   28 3

#	End of record

