#	Name: ASD03092216
#	Creating user name:	WinNT
#	Creation time:	15. 06. 2019 20:32

#	Modifying user name:	WinNT
#	Modification time:	15. 06. 2019 20:32

#	Program:	/corina/corina34_cracker 3.40 0067  02.08.2006

@<TRIPOS>MOLECULE
ASD03092216
  49   51    0    0    0
SMALL
NO_CHARGES


@<TRIPOS>ATOM
   1 N1            -0.5021     1.5163     0.1061 N.pl3   
   2 C2            -0.2381     0.1990     0.2555 C.2     
   3 N3            -1.3831    -0.4522     0.2090 N.2     
   4 C4            -2.3848     0.4112     0.0330 C.2     
   5 N5            -1.8953     1.6280    -0.0301 N.2     
   6 C6             0.4715     2.6109     0.0950 C.3     
   7 C7             0.8930     2.9040    -1.3463 C.3     
   8 O8            -0.2314     3.3906    -2.0818 O.3     
   9 C9             2.0001     3.9600    -1.3492 C.3     
  10 C10            2.5081     4.1624    -2.7782 C.3     
  11 C11            1.1002    -0.4053     0.4380 C.ar    
  12 C12            1.2241    -1.6764     0.9994 C.ar    
  13 C13            2.4748    -2.2346     1.1665 C.ar    
  14 C14            3.6045    -1.5365     0.7787 C.ar    
  15 C15            3.4883    -0.2754     0.2219 C.ar    
  16 C16            2.2429     0.2913     0.0442 C.ar    
  17 N17           -3.7367     0.0755    -0.0632 N.pl3   
  18 C18           -4.1235    -1.2683    -0.0887 C.ar    
  19 C19           -5.3821    -1.6382     0.3666 C.ar    
  20 C20           -5.7634    -2.9660     0.3405 C.ar    
  21 C21           -4.8921    -3.9284    -0.1386 C.ar    
  22 C22           -3.6341    -3.5624    -0.5941 C.ar    
  23 C23           -3.2512    -2.2338    -0.5748 C.ar    
  24 F24           -5.2669    -5.2262    -0.1622 F       
  25 F25           -2.7847    -4.5033    -1.0614 F       
  26 C26            2.6105    -3.6074     1.7732 C.3     
  27 C27            4.7242     0.4782    -0.1973 C.3     
  28 H28            0.0205     3.5028     0.5301 H       
  29 H29            1.3466     2.3248     0.6784 H       
  30 H30            1.2622     1.9892    -1.8100 H       
  31 H31           -0.6125     4.2045    -1.7249 H       
  32 H32            1.6053     4.9014    -0.9672 H       
  33 H33            2.8218     3.6267    -0.7153 H       
  34 H34            3.2968     4.9147    -2.7803 H       
  35 H35            2.9029     3.2209    -3.1602 H       
  36 H36            1.6864     4.4957    -3.4121 H       
  37 H37            0.3429    -2.2222     1.3029 H       
  38 H38            4.5812    -1.9777     0.9116 H       
  39 H39            2.1535     1.2757    -0.3910 H       
  40 H40           -4.4076     0.7743    -0.1124 H       
  41 H41           -6.0628    -0.8882     0.7413 H       
  42 H42           -6.7424    -3.2532     0.6947 H       
  43 H43           -2.2720    -1.9482    -0.9297 H       
  44 H44            2.5810    -4.3582     0.9836 H       
  45 H45            3.5591    -3.6772     2.3056 H       
  46 H46            1.7897    -3.7798     2.4694 H       
  47 H47            4.9602     0.2407    -1.2346 H       
  48 H48            4.5466     1.5493    -0.1011 H       
  49 H49            5.5596     0.1896     0.4406 H       
@<TRIPOS>BOND
   1    1    2 1
   2    1    6 1
   3    1    5 1
   4    2    3 2
   5    2   11 1
   6    3    4 1
   7    4    5 2
   8    4   17 1
   9    6    7 1
  10    6   28 1
  11    6   29 1
  12    7    8 1
  13    7    9 1
  14    7   30 1
  15    8   31 1
  16    9   10 1
  17    9   32 1
  18    9   33 1
  19   10   34 1
  20   10   35 1
  21   10   36 1
  22   11   12 ar
  23   11   16 ar
  24   12   13 ar
  25   12   37 1
  26   13   14 ar
  27   13   26 1
  28   14   15 ar
  29   14   38 1
  30   15   16 ar
  31   15   27 1
  32   16   39 1
  33   17   18 1
  34   17   40 1
  35   18   19 ar
  36   18   23 ar
  37   19   20 ar
  38   19   41 1
  39   20   21 ar
  40   20   42 1
  41   21   22 ar
  42   21   24 1
  43   22   23 ar
  44   22   25 1
  45   23   43 1
  46   26   44 1
  47   26   45 1
  48   26   46 1
  49   27   47 1
  50   27   48 1
  51   27   49 1

#	End of record

