#	Name: ASD08150081
#	Creating user name:	WinNT
#	Creation time:	15. 06. 2019 21:15

#	Modifying user name:	WinNT
#	Modification time:	15. 06. 2019 21:15

#	Program:	/corina/corina34_cracker 3.40 0067  02.08.2006

@<TRIPOS>MOLECULE
ASD08150081
  44   45    0    0    0
SMALL
NO_CHARGES


@<TRIPOS>ATOM
   1 O1             0.0390     1.2216     0.3195 O.3     
   2 C2             0.2222    -0.1029     0.2797 C.2     
   3 N3             1.5023    -0.4686     0.1264 N.am    
   4 C4             2.3364     0.7403     0.0467 C.3     
   5 C5             1.3240     1.8942     0.1801 C.3     
   6 O6            -0.6887    -0.9014     0.3747 O.2     
   7 C7             3.0553     0.8093    -1.3021 C.3     
   8 C8             1.9911    -1.8475     0.0505 C.3     
   9 C9             2.4363    -2.2986     1.4178 C.ar    
  10 C10            1.5646    -2.9987     2.2313 C.ar    
  11 C11            1.9702    -3.4133     3.4851 C.ar    
  12 C12            3.2535    -3.1267     3.9277 C.ar    
  13 C13            4.1262    -2.4242     3.1095 C.ar    
  14 C14            3.7175    -2.0167     1.8543 C.ar    
  15 O15            3.6548    -3.5332     5.1608 O.3     
  16 C16            4.9894    -3.2030     5.5503 C.3     
  17 C17            1.3384     2.7683    -1.0756 C.3     
  18 C18            0.3292     3.9071    -0.9159 C.3     
  19 C19            0.6967     4.7461     0.3096 C.3     
  20 C20            0.3551     4.7903    -2.1650 C.3     
  21 O21           -0.9807     3.3623    -0.7448 O.3     
  22 H22            3.0547     0.7646     0.8662 H       
  23 H23            1.5404     2.4920     1.0655 H       
  24 H24            2.3250     0.7314    -2.1075 H       
  25 H25            3.5856     1.7581    -1.3831 H       
  26 H26            3.7675    -0.0125    -1.3767 H       
  27 H27            1.1912    -2.4976    -0.3040 H       
  28 H28            2.8327    -1.8971    -0.6404 H       
  29 H29            0.5656    -3.2212     1.8864 H       
  30 H30            1.2889    -3.9598     4.1203 H       
  31 H31            5.1256    -2.1998     3.4518 H       
  32 H32            4.3981    -1.4739     1.2151 H       
  33 H33            5.6938    -3.6522     4.8502 H       
  34 H34            5.1122    -2.1199     5.5445 H       
  35 H35            5.1803    -3.5849     6.5531 H       
  36 H36            2.3360     3.1840    -1.2174 H       
  37 H37            1.0701     2.1639    -1.9421 H       
  38 H38            1.6959     5.1617     0.1791 H       
  39 H39           -0.0222     5.5574     0.4234 H       
  40 H40            0.6783     4.1169     1.1995 H       
  41 H41            0.1788     4.1761    -3.0480 H       
  42 H42           -0.4233     5.5496    -2.0893 H       
  43 H43            1.3281     5.2745    -2.2476 H       
  44 H44           -1.6730     4.0288    -0.6373 H       
@<TRIPOS>BOND
   1    1    2 1
   2    1    5 1
   3    2    3 am
   4    2    6 2
   5    3    4 1
   6    3    8 1
   7    4    5 1
   8    4    7 1
   9    4   22 1
  10    5   17 1
  11    5   23 1
  12    7   24 1
  13    7   25 1
  14    7   26 1
  15    8    9 1
  16    8   27 1
  17    8   28 1
  18    9   10 ar
  19    9   14 ar
  20   10   11 ar
  21   10   29 1
  22   11   12 ar
  23   11   30 1
  24   12   13 ar
  25   12   15 1
  26   13   14 ar
  27   13   31 1
  28   14   32 1
  29   15   16 1
  30   16   33 1
  31   16   34 1
  32   16   35 1
  33   17   18 1
  34   17   36 1
  35   17   37 1
  36   18   19 1
  37   18   20 1
  38   18   21 1
  39   19   38 1
  40   19   39 1
  41   19   40 1
  42   20   41 1
  43   20   42 1
  44   20   43 1
  45   21   44 1

#	End of record

