#	Name: ASD01150898
#	Creating user name:	WinNT
#	Creation time:	15. 06. 2019 19:05

#	Modifying user name:	WinNT
#	Modification time:	15. 06. 2019 19:05

#	Program:	/corina/corina34_cracker 3.40 0067  02.08.2006

@<TRIPOS>MOLECULE
ASD01150898
  62   65    0    0    0
SMALL
NO_CHARGES


@<TRIPOS>ATOM
   1 C1            -0.0184     1.5028     0.0103 C.3     
   2 C2             0.2330     0.0372    -0.2347 C.2     
   3 N3             0.8862    -0.6978     0.6870 N.am    
   4 O4            -0.1526    -0.4808    -1.2612 O.2     
   5 C5             1.1182    -2.0505     0.4609 C.2     
   6 N6             0.7501    -2.7421    -0.6202 N.2     
   7 C7             1.1307    -3.9979    -0.5034 C.2     
   8 N8             1.7715    -4.1652     0.6821 N.pl3   
   9 C9             1.7795    -2.9220     1.3167 C.2     
  10 C10            2.3376    -2.6153     2.5743 C.2     
  11 O11            2.9453    -3.5808     3.2970 O.3     
  12 O12            2.2717    -1.4796     3.0090 O.2     
  13 C13            3.4885    -3.1991     4.5625 C.3     
  14 C14            4.1315    -4.4166     5.2296 C.3     
  15 S15            0.8511    -5.2627    -1.6979 S.3     
  16 C16           -0.0298    -4.3124    -2.9616 C.3     
  17 C17            2.3485    -5.4106     1.1945 C.3     
  18 C18            3.7832    -5.5210     0.7468 C.ar    
  19 C19            4.7945    -5.0003     1.5324 C.ar    
  20 C20            6.1105    -5.1015     1.1217 C.ar    
  21 C21            6.4154    -5.7238    -0.0744 C.ar    
  22 C22            5.4042    -6.2453    -0.8595 C.ar    
  23 C23            4.0885    -6.1479    -0.4468 C.ar    
  24 C24            1.2980     2.2168     0.1792 C.ar    
  25 C25           -0.7605     2.0882    -1.1634 C.ar    
  26 C26           -0.2650     1.9283    -2.4439 C.ar    
  27 C27           -0.9458     2.4654    -3.5205 C.ar    
  28 C28           -2.1222     3.1620    -3.3166 C.ar    
  29 C29           -2.6182     3.3212    -2.0361 C.ar    
  30 C30           -1.9397     2.7804    -0.9599 C.ar    
  31 C31            1.5032     3.0390     1.2713 C.ar    
  32 C32            2.7106     3.6940     1.4262 C.ar    
  33 C33            3.7129     3.5265     0.4891 C.ar    
  34 C34            3.5081     2.7036    -0.6026 C.ar    
  35 C35            2.3022     2.0452    -0.7552 C.ar    
  36 H36           -0.6154     1.6229     0.9143 H       
  37 H37            1.1946    -0.2834     1.5081 H       
  38 H38            4.2418    -2.4250     4.4159 H       
  39 H39            2.6915    -2.8147     5.1989 H       
  40 H40            4.5458    -4.1255     6.1948 H       
  41 H41            3.3782    -5.1907     5.3761 H       
  42 H42            4.9285    -4.8011     4.5931 H       
  43 H43           -0.9425    -3.8976    -2.5338 H       
  44 H44            0.6066    -3.5014    -3.3158 H       
  45 H45           -0.2840    -4.9658    -3.7962 H       
  46 H46            2.3069    -5.4092     2.2837 H       
  47 H47            1.7817    -6.2586     0.8103 H       
  48 H48            4.5563    -4.5141     2.4669 H       
  49 H49            6.9005    -4.6941     1.7352 H       
  50 H50            7.4435    -5.8023    -0.3956 H       
  51 H51            5.6424    -6.7313    -1.7942 H       
  52 H52            3.2985    -6.5554    -1.0602 H       
  53 H53            0.6541     1.3840    -2.6032 H       
  54 H54           -0.5583     2.3410    -4.5209 H       
  55 H55           -2.6537     3.5822    -4.1576 H       
  56 H56           -3.5371     3.8657    -1.8767 H       
  57 H57           -2.3272     2.9047     0.0405 H       
  58 H58            0.7200     3.1698     2.0034 H       
  59 H59            2.8707     4.3369     2.2791 H       
  60 H60            4.6560     4.0388     0.6097 H       
  61 H61            4.2911     2.5730    -1.3349 H       
  62 H62            2.1421     1.4023    -1.6081 H       
@<TRIPOS>BOND
   1    1    2 1
   2    1   24 1
   3    1   25 1
   4    1   36 1
   5    2    3 am
   6    2    4 2
   7    3    5 1
   8    3   37 1
   9    5    6 1
  10    5    9 2
  11    6    7 2
  12    7    8 1
  13    7   15 1
  14    8    9 1
  15    8   17 1
  16    9   10 1
  17   10   11 1
  18   10   12 2
  19   11   13 1
  20   13   14 1
  21   13   38 1
  22   13   39 1
  23   14   40 1
  24   14   41 1
  25   14   42 1
  26   15   16 1
  27   16   43 1
  28   16   44 1
  29   16   45 1
  30   17   18 1
  31   17   46 1
  32   17   47 1
  33   18   19 ar
  34   18   23 ar
  35   19   20 ar
  36   19   48 1
  37   20   21 ar
  38   20   49 1
  39   21   22 ar
  40   21   50 1
  41   22   23 ar
  42   22   51 1
  43   23   52 1
  44   24   31 ar
  45   24   35 ar
  46   25   26 ar
  47   25   30 ar
  48   26   27 ar
  49   26   53 1
  50   27   28 ar
  51   27   54 1
  52   28   29 ar
  53   28   55 1
  54   29   30 ar
  55   29   56 1
  56   30   57 1
  57   31   32 ar
  58   31   58 1
  59   32   33 ar
  60   32   59 1
  61   33   34 ar
  62   33   60 1
  63   34   35 ar
  64   34   61 1
  65   35   62 1

#	End of record

