#	Name: ASD03330043
#	Creating user name:	WinNT
#	Creation time:	15. 06. 2019 20:36

#	Modifying user name:	WinNT
#	Modification time:	15. 06. 2019 20:36

#	Program:	/corina/corina34_cracker 3.40 0067  02.08.2006

@<TRIPOS>MOLECULE
ASD03330043
  59   61    0    0    0
SMALL
NO_CHARGES


@<TRIPOS>ATOM
   1 N1             0.0092     1.3290     0.0320 N.pl3   
   2 C2             0.0210    -0.0523     0.0457 C.2     
   3 C3             1.3083    -0.4868     0.0513 C.2     
   4 C4             2.1482     0.6530     0.0408 C.ar    
   5 C5             3.5390     0.8233     0.0401 C.ar    
   6 C6             4.0689     2.0815     0.0278 C.ar    
   7 C7             3.2405     3.1981     0.0159 C.ar    
   8 C8             1.8712     3.0557     0.0163 C.ar    
   9 C9             1.3074     1.7828     0.0288 C.ar    
  10 C10           -1.1700    -0.9149     0.0535 C.2     
  11 O11           -1.0446    -2.1249     0.0660 O.2     
  12 N12           -2.4004    -0.3650     0.0468 N.am    
  13 C13            1.7610    -1.9241     0.0660 C.3     
  14 C14            1.9162    -2.4247    -1.3715 C.3     
  15 C15            2.3758    -3.8839    -1.3566 C.3     
  16 C16            2.5311    -4.3844    -2.7941 C.3     
  17 C17            2.9907    -5.8437    -2.7792 C.3     
  18 C18           -3.5869    -1.2244     0.0546 C.3     
  19 C19           -4.8461    -0.3554     0.0446 C.3     
  20 C20           -6.0666    -1.2394     0.0526 C.ar    
  21 C21           -6.6263    -1.6318     1.2546 C.ar    
  22 C22           -7.7448    -2.4419     1.2656 C.ar    
  23 C23           -8.3075    -2.8626     0.0672 C.ar    
  24 C24           -7.7427    -2.4665    -1.1385 C.ar    
  25 C25           -6.6276    -1.6518    -1.1423 C.ar    
  26 N26           -9.4384    -3.6823     0.0746 N.pl3   
  27 C27           -9.9560    -4.2049     1.3416 C.3     
  28 C28          -10.1069    -4.0194    -1.1846 C.3     
  29 Cl29           5.7924     2.2891     0.0275 Cl      
  30 H30           -0.7842     1.8869     0.0221 H       
  31 H31            4.1900    -0.0384     0.0497 H       
  32 H32            3.6754     4.1866     0.0066 H       
  33 H33            1.2361     3.9292     0.0074 H       
  34 H34           -2.5005     0.5997     0.0368 H       
  35 H35            2.7183    -1.9983     0.5819 H       
  36 H36            1.0206    -2.5330     0.5847 H       
  37 H37            0.9589    -2.3505    -1.8874 H       
  38 H38            2.6567    -1.8158    -1.8903 H       
  39 H39            3.3331    -3.9581    -0.8407 H       
  40 H40            1.6354    -4.4928    -0.8378 H       
  41 H41            1.5738    -4.3103    -3.3100 H       
  42 H42            3.2715    -3.7756    -3.3128 H       
  43 H43            3.9480    -5.9179    -2.2633 H       
  44 H44            2.2502    -6.4526    -2.2604 H       
  45 H45            3.1012    -6.2003    -3.8032 H       
  46 H46           -3.5789    -1.8628    -0.8289 H       
  47 H47           -3.5805    -1.8445     0.9510 H       
  48 H48           -4.8541     0.2829     0.9280 H       
  49 H49           -4.8525     0.2647    -0.8518 H       
  50 H50           -6.1881    -1.3047     2.1860 H       
  51 H51           -8.1812    -2.7483     2.2047 H       
  52 H52           -8.1777    -2.7918    -2.0720 H       
  53 H53           -6.1907    -1.3396    -2.0794 H       
  54 H54          -10.6844    -3.5058     1.7525 H       
  55 H55          -10.4348    -5.1686     1.1686 H       
  56 H56           -9.1338    -4.3290     2.0464 H       
  57 H57           -9.6415    -3.4685    -2.0019 H       
  58 H58          -10.0153    -5.0898    -1.3693 H       
  59 H59          -11.1613    -3.7509    -1.1194 H       
@<TRIPOS>BOND
   1    1    2 1
   2    1    9 1
   3    1   30 1
   4    2    3 2
   5    2   10 1
   6    3    4 1
   7    3   13 1
   8    4    5 ar
   9    4    9 ar
  10    5    6 ar
  11    5   31 1
  12    6    7 ar
  13    6   29 1
  14    7    8 ar
  15    7   32 1
  16    8    9 ar
  17    8   33 1
  18   10   11 2
  19   10   12 am
  20   12   18 1
  21   12   34 1
  22   13   14 1
  23   13   35 1
  24   13   36 1
  25   14   15 1
  26   14   37 1
  27   14   38 1
  28   15   16 1
  29   15   39 1
  30   15   40 1
  31   16   17 1
  32   16   41 1
  33   16   42 1
  34   17   43 1
  35   17   44 1
  36   17   45 1
  37   18   19 1
  38   18   46 1
  39   18   47 1
  40   19   20 1
  41   19   48 1
  42   19   49 1
  43   20   21 ar
  44   20   25 ar
  45   21   22 ar
  46   21   50 1
  47   22   23 ar
  48   22   51 1
  49   23   24 ar
  50   23   26 1
  51   24   25 ar
  52   24   52 1
  53   25   53 1
  54   26   27 1
  55   26   28 1
  56   27   54 1
  57   27   55 1
  58   27   56 1
  59   28   57 1
  60   28   58 1
  61   28   59 1

#	End of record

