#	Name: ASD02610029
#	Creating user name:	WinNT
#	Creation time:	15. 06. 2019 20:25

#	Modifying user name:	WinNT
#	Modification time:	15. 06. 2019 20:25

#	Program:	/corina/corina34_cracker 3.40 0067  02.08.2006

@<TRIPOS>MOLECULE
ASD02610029
  96   99    0    0    0
SMALL
NO_CHARGES


@<TRIPOS>ATOM
   1 C1             0.3689     1.0879    -0.2542 C.3     
   2 C2             0.7036    -0.4157    -0.4065 C.3     
   3 C3             2.1170    -0.4407    -0.9396 C.2     
   4 C4             2.7082     0.7199    -0.7738 C.2     
   5 C5             1.7793     1.6871    -0.0964 C.3     
   6 C6             4.1023     1.0411    -1.2437 C.3     
   7 C7             4.7434     2.1047    -0.3781 C.3     
   8 C8             4.3239     3.5119    -0.6734 C.3     
   9 C9             3.0314     3.8903     0.0028 C.3     
  10 C10            1.8638     3.0976    -0.5619 C.3     
  11 O11           -0.1900    -1.0333    -1.3351 O.3     
  12 C12            2.7644    -1.6420    -1.5790 C.3     
  13 O13           -0.4368     1.3273     0.9298 O.3     
  14 H14            2.0189     1.6822     0.9670 H       
  15 O15            0.6319     3.7746    -0.1981 O.3     
  16 C16            1.9744     3.0964    -2.0879 C.3     
  17 O17            4.1653     3.6588    -2.0859 O.3     
  18 O18            4.9737    -0.0973    -1.1271 O.3     
  19 C19            6.3209     0.4176    -1.1199 C.3     
  20 C20            6.2525     1.8724    -0.6030 C.3     
  21 O21            4.4389     1.8240     0.9896 O.3     
  22 C22           -1.7699     1.3015     0.7751 C.2     
  23 C23           -2.6707     1.5413     1.9593 C.3     
  24 C24           -4.1320     1.4578     1.5137 C.3     
  25 C25           -5.0464     1.7013     2.7160 C.3     
  26 C26           -6.5077     1.6178     2.2704 C.3     
  27 C27           -7.4222     1.8613     3.4727 C.3     
  28 O28           -2.2478     1.0860    -0.3135 O.2     
  29 O29            6.7605     2.7792    -1.5836 O.3     
  30 C30           -8.8835     1.7778     3.0271 C.3     
  31 C31           -9.7979     2.0213     4.2293 C.3     
  32 C32            7.0210     2.0133     0.7125 C.3     
  33 C33            0.4818     5.0382    -0.6254 C.2     
  34 C34           -0.7316     5.8328    -0.2164 C.3     
  35 O35            1.3196     5.5385    -1.3379 O.2     
  36 H36            4.0733     1.3777    -2.2800 H       
  37 C37            6.8939     0.3958    -2.5384 C.3     
  38 O38            7.1375    -0.3693    -0.2505 O.3     
  39 C39           -0.4683    -2.3394    -1.1414 C.2     
  40 C40           -1.3467    -3.0153    -2.0244 C.2     
  41 O41            0.0350    -2.9368    -0.2086 O.2     
  42 C42           -1.6254    -4.3235    -1.8304 C.2     
  43 C43           -2.5359    -5.0240    -2.7456 C.ar    
  44 C44           -2.8261    -6.3796    -2.5464 C.ar    
  45 C45           -3.6768    -7.0293    -3.4027 C.ar    
  46 C46           -4.2521    -6.3435    -4.4695 C.ar    
  47 C47           -3.9663    -4.9957    -4.6712 C.ar    
  48 C48           -3.1209    -4.3368    -3.8166 C.ar    
  49 N49           -5.1143    -7.0069    -5.3362 N.pl3   
  50 H50           -0.1239     1.4731    -1.1469 H       
  51 H51            0.6534    -0.9160     0.5606 H       
  52 H52            5.1082     4.1903    -0.3375 H       
  53 H53            3.1153     3.6910     1.0712 H       
  54 H54            2.8473     4.9541    -0.1479 H       
  55 H55            2.0575    -2.4716    -1.5924 H       
  56 H56            3.0565    -1.3970    -2.6001 H       
  57 H57            3.6475    -1.9264    -1.0068 H       
  58 H58            1.0287     2.7695    -2.5204 H       
  59 H59            2.2045     4.1032    -2.4363 H       
  60 H60            2.7686     2.4155    -2.3941 H       
  61 H61            3.8936     4.5451    -2.3612 H       
  62 H62            4.6873     0.9334     1.2730 H       
  63 H63           -2.4792     0.7849     2.7205 H       
  64 H64           -2.4726     2.5304     2.3721 H       
  65 H65           -4.3235     2.2141     0.7526 H       
  66 H66           -4.3300     0.4686     1.1010 H       
  67 H67           -4.8549     0.9449     3.4772 H       
  68 H68           -4.8483     2.6905     3.1287 H       
  69 H69           -6.6992     2.3742     1.5092 H       
  70 H70           -6.7058     0.6286     1.8577 H       
  71 H71           -7.2307     1.1050     4.2338 H       
  72 H72           -7.2241     2.8505     3.8854 H       
  73 H73            7.7050     2.6759    -1.7630 H       
  74 H74           -9.0750     2.5342     2.2659 H       
  75 H75           -9.0816     0.7887     2.6143 H       
  76 H76           -9.6064     1.2650     4.9905 H       
  77 H77           -9.5999     3.0105     4.6421 H       
  78 H78          -10.8390     1.9619     3.9119 H       
  79 H79            6.6535     1.2782     1.4285 H       
  80 H80            8.0830     1.8459     0.5325 H       
  81 H81            6.8741     3.0161     1.1135 H       
  82 H82           -0.5217     6.3646     0.7117 H       
  83 H83           -0.9764     6.5508    -0.9991 H       
  84 H84           -1.5741     5.1579    -0.0659 H       
  85 H85            6.2615     0.9933    -3.1950 H       
  86 H86            7.9021     0.8100    -2.5294 H       
  87 H87            6.9264    -0.6315    -2.9014 H       
  88 H88            7.2117    -1.2969    -0.5134 H       
  89 H89           -1.7934    -2.4850    -2.8524 H       
  90 H90           -1.1787    -4.8538    -1.0023 H       
  91 H91           -2.3801    -6.9123    -1.7195 H       
  92 H92           -3.9009    -8.0748    -3.2501 H       
  93 H93           -4.4144    -4.4677    -5.5000 H       
  94 H94           -2.9000    -3.2913    -3.9737 H       
  95 H95           -5.3141    -7.9458    -5.1971 H       
  96 H96           -5.5158    -6.5305    -6.0797 H       
@<TRIPOS>BOND
   1    1    2 1
   2    1    5 1
   3    1   13 1
   4    1   50 1
   5    2    3 1
   6    2   11 1
   7    2   51 1
   8    3    4 2
   9    3   12 1
  10    4    5 1
  11    4    6 1
  12    5   10 1
  13    5   14 1
  14    6    7 1
  15    6   18 1
  16    6   36 1
  17    7   20 1
  18    7   21 1
  19    7    8 1
  20    8    9 1
  21    8   17 1
  22    8   52 1
  23    9   10 1
  24    9   53 1
  25    9   54 1
  26   10   15 1
  27   10   16 1
  28   11   39 1
  29   12   55 1
  30   12   56 1
  31   12   57 1
  32   13   22 1
  33   15   33 1
  34   16   58 1
  35   16   59 1
  36   16   60 1
  37   17   61 1
  38   18   19 1
  39   19   20 1
  40   19   37 1
  41   19   38 1
  42   20   29 1
  43   20   32 1
  44   21   62 1
  45   22   23 1
  46   22   28 2
  47   23   24 1
  48   23   63 1
  49   23   64 1
  50   24   25 1
  51   24   65 1
  52   24   66 1
  53   25   26 1
  54   25   67 1
  55   25   68 1
  56   26   27 1
  57   26   69 1
  58   26   70 1
  59   27   30 1
  60   27   71 1
  61   27   72 1
  62   29   73 1
  63   30   31 1
  64   30   74 1
  65   30   75 1
  66   31   76 1
  67   31   77 1
  68   31   78 1
  69   32   79 1
  70   32   80 1
  71   32   81 1
  72   33   34 1
  73   33   35 2
  74   34   82 1
  75   34   83 1
  76   34   84 1
  77   37   85 1
  78   37   86 1
  79   37   87 1
  80   38   88 1
  81   39   40 1
  82   39   41 2
  83   40   42 2
  84   40   89 1
  85   42   43 1
  86   42   90 1
  87   43   44 ar
  88   43   48 ar
  89   44   45 ar
  90   44   91 1
  91   45   46 ar
  92   45   92 1
  93   46   47 ar
  94   46   49 1
  95   47   48 ar
  96   47   93 1
  97   48   94 1
  98   49   95 1
  99   49   96 1

#	End of record

