#	Name: ASD01900241
#	Creating user name:	WinNT
#	Creation time:	15. 06. 2019 19:51

#	Modifying user name:	WinNT
#	Modification time:	15. 06. 2019 19:51

#	Program:	/corina/corina34_cracker 3.40 0067  02.08.2006

@<TRIPOS>MOLECULE
ASD01900241
  66   71    0    0    0
SMALL
NO_CHARGES


@<TRIPOS>ATOM
   1 C1             1.4586     0.0434    -0.6731 C.ar    
   2 C2             1.9289    -1.2146    -0.9283 C.ar    
   3 C3             3.2980    -1.4410    -1.0877 C.ar    
   4 C4             4.2013    -0.3858    -0.9794 C.ar    
   5 C5             3.7313     0.8876    -0.7147 C.ar    
   6 C6             2.3496     1.1101    -0.5711 C.ar    
   7 N7             4.5924     1.9709    -0.5767 N.pl3   
   8 C8             4.1046     3.3120    -0.9180 C.3     
   9 N9             2.7516     3.5080    -0.3963 N.am    
  10 C10            1.8827     2.4822    -0.3039 C.2     
  11 C11            5.0409     4.3597    -0.3083 C.3     
  12 C12            4.0940     3.4749    -2.4404 C.3     
  13 C13            3.6525     4.8973    -2.7928 C.3     
  14 N14            4.5766     5.8633    -2.1854 N.3     
  15 C15            4.5705     5.7564    -0.7208 C.3     
  16 C16            2.3524     4.7856     0.0152 C.ar    
  17 C17            2.7694     5.2817     1.2434 C.ar    
  18 C18            2.3753     6.5415     1.6485 C.ar    
  19 C19            1.5627     7.3114     0.8292 C.ar    
  20 C20            1.1458     6.8165    -0.3979 C.ar    
  21 C21            1.5441     5.5593    -0.8071 C.ar    
  22 C22            0.4400     9.3366     0.2876 C.3     
  23 O23            1.1744     8.5516     1.2292 O.3     
  24 C24            4.2636     7.2329    -2.6146 C.3     
  25 C25            5.1815     8.2011    -1.9138 C.ar    
  26 C26            6.4128     8.5065    -2.4635 C.ar    
  27 C27            7.2562     9.3954    -1.8208 C.ar    
  28 C28            6.8649     9.9792    -0.6251 C.ar    
  29 C29            5.6319     9.6716    -0.0776 C.ar    
  30 C30            4.7892     8.7873    -0.7252 C.ar    
  31 F31            7.6868    10.8471     0.0045 F       
  32 F32            8.4597     9.6939    -2.3571 F       
  33 O33            0.7224     2.6870    -0.0024 O.2     
  34 C34            3.7921    -2.8101    -1.3729 C.ar    
  35 F35           -0.7795     8.7103     0.0088 F       
  36 F36            0.2003    10.6058     0.8250 F       
  37 F37            1.1803     9.4622    -0.8928 F       
  38 C38            2.8942    -3.8591    -1.5870 C.ar    
  39 C39            3.4065    -5.1176    -1.8493 C.ar    
  40 N40            4.7193    -5.2850    -1.8884 N.ar    
  41 C41            5.5402    -4.2744    -1.6820 C.ar    
  42 N42            5.0985    -3.0590    -1.4346 N.ar    
  43 H43            0.3982     0.2110    -0.5552 H       
  44 H44            1.2366    -2.0398    -1.0070 H       
  45 H45            5.2601    -0.5609    -1.1009 H       
  46 H46            5.5001     1.8422    -0.2599 H       
  47 H47            5.0231     4.2757     0.7783 H       
  48 H48            6.0559     4.1957    -0.6704 H       
  49 H49            5.0954     3.2970    -2.8325 H       
  50 H50            3.3985     2.7589    -2.8783 H       
  51 H51            3.6578     5.0213    -3.8758 H       
  52 H52            2.6456     5.0696    -2.4128 H       
  53 H53            3.5598     5.9239    -0.3486 H       
  54 H54            5.2413     6.5049    -0.2991 H       
  55 H55            3.4015     4.6821     1.8817 H       
  56 H56            2.6996     6.9275     2.6037 H       
  57 H57            0.5128     7.4164    -1.0351 H       
  58 H58            1.2234     5.1760    -1.7645 H       
  59 H59            4.4019     7.3164    -3.6925 H       
  60 H60            3.2290     7.4653    -2.3619 H       
  61 H61            6.7165     8.0509    -3.3945 H       
  62 H62            5.3262    10.1253     0.8536 H       
  63 H63            3.8251     8.5510    -0.2996 H       
  64 H64            1.8279    -3.6921    -1.5484 H       
  65 H65            2.7436    -5.9531    -2.0196 H       
  66 H66            6.6055    -4.4475    -1.7211 H       
@<TRIPOS>BOND
   1    1    2 ar
   2    1    6 ar
   3    1   43 1
   4    2    3 ar
   5    2   44 1
   6    3    4 ar
   7    3   34 1
   8    4    5 ar
   9    4   45 1
  10    5    7 1
  11    5    6 ar
  12    6   10 1
  13    7    8 1
  14    7   46 1
  15    8    9 1
  16    8   12 1
  17    8   11 1
  18    9   10 am
  19    9   16 1
  20   10   33 2
  21   11   15 1
  22   11   47 1
  23   11   48 1
  24   12   13 1
  25   12   49 1
  26   12   50 1
  27   13   14 1
  28   13   51 1
  29   13   52 1
  30   14   15 1
  31   14   24 1
  32   15   53 1
  33   15   54 1
  34   16   17 ar
  35   16   21 ar
  36   17   18 ar
  37   17   55 1
  38   18   19 ar
  39   18   56 1
  40   19   20 ar
  41   19   23 1
  42   20   21 ar
  43   20   57 1
  44   21   58 1
  45   22   23 1
  46   22   35 1
  47   22   36 1
  48   22   37 1
  49   24   25 1
  50   24   59 1
  51   24   60 1
  52   25   26 ar
  53   25   30 ar
  54   26   27 ar
  55   26   61 1
  56   27   28 ar
  57   27   32 1
  58   28   29 ar
  59   28   31 1
  60   29   30 ar
  61   29   62 1
  62   30   63 1
  63   34   38 ar
  64   34   42 ar
  65   38   39 ar
  66   38   64 1
  67   39   40 ar
  68   39   65 1
  69   40   41 ar
  70   41   42 ar
  71   41   66 1

#	End of record

