#	Name: ASD01470061
#	Creating user name:	WinNT
#	Creation time:	15. 06. 2019 19:21

#	Modifying user name:	WinNT
#	Modification time:	15. 06. 2019 19:21

#	Program:	/corina/corina34_cracker 3.40 0067  02.08.2006

@<TRIPOS>MOLECULE
ASD01470061
  22   22    0    0    0
SMALL
NO_CHARGES


@<TRIPOS>ATOM
   1 C1            -0.0187     1.5258     0.0104 C.3     
   2 C2             0.0021    -0.0041     0.0020 C.3     
   3 C3             0.7421    -0.5109     1.2415 C.3     
   4 C4             2.1775     0.0187     1.2307 C.3     
   5 C5             2.1567     1.5485     1.2391 C.3     
   6 C6             1.4167     2.0553    -0.0004 C.3     
   7 O7             0.0732    -0.0501     2.4172 O.3     
   8 C8             2.9174    -0.4882     2.4702 C.3     
   9 H9            -0.5459     1.8868    -0.8726 H       
  10 H10           -0.5289     1.8773     0.9072 H       
  11 H11           -1.0205    -0.3814     0.0098 H       
  12 H12            0.5123    -0.3556    -0.8948 H       
  13 H13            0.7568    -1.6008     1.2356 H       
  14 H14            2.6876    -0.3328     0.3339 H       
  15 H15            1.6465     1.9000     2.1359 H       
  16 H16            3.1793     1.9258     1.2314 H       
  17 H17            1.9269     1.7038    -0.8972 H       
  18 H18            1.4019     3.1452     0.0056 H       
  19 H19           -0.8437    -0.3483     2.4905 H       
  20 H20            2.9322    -1.5780     2.4642 H       
  21 H21            3.9400    -0.1109     2.4625 H       
  22 H22            2.4073    -0.1366     3.3670 H       
@<TRIPOS>BOND
   1    1    2 1
   2    1    6 1
   3    1    9 1
   4    1   10 1
   5    2    3 1
   6    2   11 1
   7    2   12 1
   8    3    4 1
   9    3    7 1
  10    3   13 1
  11    4    5 1
  12    4    8 1
  13    4   14 1
  14    5    6 1
  15    5   15 1
  16    5   16 1
  17    6   17 1
  18    6   18 1
  19    7   19 1
  20    8   20 1
  21    8   21 1
  22    8   22 1

#	End of record

