#	Name: ASD03092792
#	Creating user name:	WinNT
#	Creation time:	15. 06. 2019 20:33

#	Modifying user name:	WinNT
#	Modification time:	15. 06. 2019 20:33

#	Program:	/corina/corina34_cracker 3.40 0067  02.08.2006

@<TRIPOS>MOLECULE
ASD03092792
  48   50    0    0    0
SMALL
NO_CHARGES


@<TRIPOS>ATOM
   1 C1             0.0161     1.5121     0.0123 C.3     
   2 C2             0.0243    -0.0173    -0.0318 C.3     
   3 C3            -1.3907    -0.5297     0.0475 C.2     
   4 O4            -2.3165     0.2530     0.1312 O.2     
   5 C5            -1.6399    -1.9144     0.0246 C.2     
   6 S6            -0.4086    -3.1644    -0.0851 S.3     
   7 C7            -1.6288    -4.4287    -0.0446 C.2     
   8 C8            -2.8712    -3.8777     0.0467 C.2     
   9 C9            -4.1264    -4.7099     0.1015 C.3     
  10 C10           -2.8910    -2.5011     0.0909 C.2     
  11 C11           -4.1432    -1.7170     0.1968 C.ar    
  12 C12           -4.9296    -1.8052     1.3454 C.ar    
  13 C13           -6.0948    -1.0720     1.4382 C.ar    
  14 C14           -6.4838    -0.2510     0.3948 C.ar    
  15 C15           -5.7080    -0.1593    -0.7470 C.ar    
  16 C16           -4.5378    -0.8831    -0.8494 C.ar    
  17 S17           -7.9736     0.6813     0.5205 S.o2    
  18 N18           -7.5831     2.1404     1.1994 N.am    
  19 O19           -8.3884     0.9562    -0.8105 O.2     
  20 O20           -8.7916     0.0051     1.4655 O.2     
  21 C21           -1.3478    -5.8785    -0.1014 C.ar    
  22 C22           -0.4710    -6.3856    -1.0620 C.ar    
  23 C23           -0.2131    -7.7399    -1.1095 C.ar    
  24 C24           -0.8213    -8.5952    -0.2078 C.ar    
  25 C25           -1.6918    -8.0992     0.7465 C.ar    
  26 C26           -1.9536    -6.7462     0.8090 C.ar    
  27 C27           -0.5348   -10.0736    -0.2658 C.3     
  28 F28            0.5622   -10.3683     0.5508 F       
  29 F29           -1.6539   -10.7834     0.1825 F       
  30 F30           -0.2468   -10.4414    -1.5844 F       
  31 H31            1.0396     1.8827    -0.0451 H       
  32 H32           -0.5574     1.8968    -0.8310 H       
  33 H33           -0.4396     1.8462     0.9443 H       
  34 H34            0.4800    -0.3515    -0.9639 H       
  35 H35            0.5978    -0.4020     0.8114 H       
  36 H36           -4.3366    -4.9827     1.1357 H       
  37 H37           -4.9612    -4.1351    -0.2995 H       
  38 H38           -3.9893    -5.6138    -0.4920 H       
  39 H39           -4.6273    -2.4463     2.1602 H       
  40 H40           -6.7046    -1.1394     2.3270 H       
  41 H41           -6.0170     0.4831    -1.5584 H       
  42 H42           -3.9307    -0.8074    -1.7394 H       
  43 H43           -8.0981     2.9319     0.9776 H       
  44 H44           -6.8393     2.2036     1.8188 H       
  45 H45            0.0042    -5.7191    -1.7666 H       
  46 H46            0.4648    -8.1336    -1.8524 H       
  47 H47           -2.1638    -8.7723     1.4470 H       
  48 H48           -2.6293    -6.3597     1.5577 H       
@<TRIPOS>BOND
   1    1    2 1
   2    1   31 1
   3    1   32 1
   4    1   33 1
   5    2    3 1
   6    2   34 1
   7    2   35 1
   8    3    4 2
   9    3    5 1
  10    5   10 2
  11    5    6 1
  12    6    7 1
  13    7    8 2
  14    7   21 1
  15    8    9 1
  16    8   10 1
  17    9   36 1
  18    9   37 1
  19    9   38 1
  20   10   11 1
  21   11   16 ar
  22   11   12 ar
  23   12   13 ar
  24   12   39 1
  25   13   14 ar
  26   13   40 1
  27   14   15 ar
  28   14   17 1
  29   15   16 ar
  30   15   41 1
  31   16   42 1
  32   17   18 am
  33   17   19 2
  34   17   20 2
  35   18   43 1
  36   18   44 1
  37   21   26 ar
  38   21   22 ar
  39   22   23 ar
  40   22   45 1
  41   23   24 ar
  42   23   46 1
  43   24   25 ar
  44   24   27 1
  45   25   26 ar
  46   25   47 1
  47   26   48 1
  48   27   28 1
  49   27   29 1
  50   27   30 1

#	End of record

