#	Name: ASD08070215
#	Creating user name:	WinNT
#	Creation time:	15. 06. 2019 21:14

#	Modifying user name:	WinNT
#	Modification time:	15. 06. 2019 21:14

#	Program:	/corina/corina34_cracker 3.40 0067  02.08.2006

@<TRIPOS>MOLECULE
ASD08070215
  39   41    0    0    0
SMALL
NO_CHARGES


@<TRIPOS>ATOM
   1 C1            -0.7157     1.4826    -0.8980 C.2     
   2 C2            -0.6454     0.0185    -0.9151 C.2     
   3 O3            -0.0119    -0.5501    -1.7848 O.2     
   4 N4            -1.2824    -0.6979     0.0323 N.am    
   5 C5            -1.2122    -2.1611     0.0151 C.3     
   6 C6            -0.8997    -2.7022     1.4290 C.3     
   7 C7            -2.1319    -3.5850     1.7944 C.3     
   8 C8            -2.6038    -2.7679    -0.3406 C.3     
   9 C9            -3.6046    -2.0247     0.5960 C.3     
  10 C10           -3.2922    -2.5659     2.0099 C.3     
  11 S11           -1.5795     2.4484     0.2906 S.3     
  12 C12            0.3748    -3.5483     1.4066 C.3     
  13 C13           -0.7574    -1.5475     2.4226 C.3     
  14 C14           -2.5074    -4.1578     0.3822 C.3     
  15 C15           -2.9657    -2.7852    -1.8271 C.3     
  16 C16           -0.1154     2.3156    -1.7996 C.2     
  17 C17           -0.3455     3.6471    -1.5466 C.2     
  18 C18           -1.1055     3.8981    -0.4741 C.2     
  19 H19           -1.7873    -0.2446     0.7254 H       
  20 H20           -0.4567    -2.4962    -0.6956 H       
  21 H21           -1.9749    -4.3184     2.5854 H       
  22 H22           -3.4359    -0.9487     0.5551 H       
  23 H23           -4.6319    -2.2600     0.3176 H       
  24 H24           -4.1658    -3.0672     2.4266 H       
  25 H25           -2.9698    -1.7558     2.6641 H       
  26 H26            1.2159    -2.9302     1.0926 H       
  27 H27            0.5666    -3.9429     2.4044 H       
  28 H28            0.2501    -4.3747     0.7069 H       
  29 H29           -1.6305    -0.8987     2.3531 H       
  30 H30           -0.6805    -1.9460     3.4342 H       
  31 H31            0.1402    -0.9751     2.1884 H       
  32 H32           -1.7132    -4.7794    -0.0312 H       
  33 H33           -3.4643    -4.6796     0.3940 H       
  34 H34           -2.2292    -3.3744    -2.3735 H       
  35 H35           -3.9532    -3.2284    -1.9554 H       
  36 H36           -2.9724    -1.7652    -2.2113 H       
  37 H37            0.4809     1.9631    -2.6282 H       
  38 H38            0.0590     4.4332    -2.1669 H       
  39 H39           -1.3808     4.8864    -0.1368 H       
@<TRIPOS>BOND
   1    1    2 1
   2    1   16 2
   3    1   11 1
   4    2    3 2
   5    2    4 am
   6    4    5 1
   7    4   19 1
   8    5    6 1
   9    5    8 1
  10    5   20 1
  11    6    7 1
  12    6   12 1
  13    6   13 1
  14    7   14 1
  15    7   10 1
  16    7   21 1
  17    8    9 1
  18    8   15 1
  19    8   14 1
  20    9   10 1
  21    9   22 1
  22    9   23 1
  23   10   24 1
  24   10   25 1
  25   11   18 1
  26   12   26 1
  27   12   27 1
  28   12   28 1
  29   13   29 1
  30   13   30 1
  31   13   31 1
  32   14   32 1
  33   14   33 1
  34   15   34 1
  35   15   35 1
  36   15   36 1
  37   16   17 1
  38   16   37 1
  39   17   18 2
  40   17   38 1
  41   18   39 1

#	End of record

