#	Name: ASD02039390
#	Creating user name:	WinNT
#	Creation time:	15. 06. 2019 20:18

#	Modifying user name:	WinNT
#	Modification time:	15. 06. 2019 20:18

#	Program:	/corina/corina34_cracker 3.40 0067  02.08.2006

@<TRIPOS>MOLECULE
ASD02039390
  51   53    0    0    0
SMALL
NO_CHARGES


@<TRIPOS>ATOM
   1 C1            -0.1271     1.5235    -0.1521 C.ar    
   2 C2            -0.1250     0.1393    -0.0542 C.ar    
   3 C3            -1.3214    -0.5485    -0.1403 C.ar    
   4 C4            -2.5057     1.4159    -0.4017 C.ar    
   5 C5            -1.3373     2.1716    -0.3288 C.ar    
   6 C6            -3.8101     2.0950    -0.5912 C.ar    
   7 C7             1.1588     2.3041    -0.0620 C.3     
   8 N8             1.7991     2.3442    -1.3790 N.am    
   9 C9             1.3656     3.3275    -2.3746 C.3     
  10 C10            2.7870     1.4763    -1.6747 C.2     
  11 C11            3.1633     0.4310    -0.7072 C.2     
  12 C12            4.1817    -0.4662    -0.8447 C.2     
  13 N13            2.5634     0.1889     0.4864 N.2     
  14 C14            3.1667    -0.8085     1.0660 C.2     
  15 N15            4.1768    -1.2395     0.2664 N.pl3   
  16 O16            3.3678     1.5562    -2.7403 O.2     
  17 C17            5.0955    -2.3436     0.5546 C.3     
  18 C18           -4.9834     1.3455    -0.6651 C.ar    
  19 N19           -2.4593     0.0925    -0.3141 N.ar    
  20 C20            2.5144     4.2936    -2.6711 C.3     
  21 C21            0.9611     2.6059    -3.6617 C.3     
  22 C22           -3.8662     3.4845    -0.6900 C.ar    
  23 C23           -5.0824     4.1136    -0.8665 C.ar    
  24 C24           -6.2495     3.3620    -0.9450 C.ar    
  25 C25           -6.1956     1.9790    -0.8414 C.ar    
  26 O26           -7.4458     3.9830    -1.1182 O.3     
  27 F27           -5.1386     5.4600    -0.9625 F       
  28 F28           -8.7287     2.4198    -0.0037 F       
  29 F29           -9.7410     3.9466    -1.3688 F       
  30 C30           -8.6047     3.1501    -1.1904 C.3     
  31 F31           -8.4790     2.2687    -2.2695 F       
  32 H32            0.8023    -0.3957     0.0876 H       
  33 H33           -1.3231    -1.6259    -0.0644 H       
  34 H34           -1.3764     3.2486    -0.3999 H       
  35 H35            0.9445     3.3203     0.2689 H       
  36 H36            1.8267     1.8227     0.6523 H       
  37 H37            0.5128     3.8850    -1.9873 H       
  38 H38            4.8615    -0.5447    -1.6802 H       
  39 H39            2.9078    -1.2242     2.0286 H       
  40 H40            4.6794    -3.2733     0.1665 H       
  41 H41            6.0571    -2.1497     0.0793 H       
  42 H42            5.2337    -2.4295     1.6324 H       
  43 H43           -4.9429     0.2693    -0.5847 H       
  44 H44            3.3336     3.7504    -3.1422 H       
  45 H45            2.1653     5.0782    -3.3423 H       
  46 H46            2.8628     4.7405    -1.7399 H       
  47 H47            0.2083     1.8513    -3.4339 H       
  48 H48            0.5507     3.3268    -4.3688 H       
  49 H49            1.8362     2.1255    -4.0993 H       
  50 H50           -2.9595     4.0680    -0.6283 H       
  51 H51           -7.1038     1.3978    -0.9032 H       
@<TRIPOS>BOND
   1    1    2 ar
   2    1    7 1
   3    1    5 ar
   4    2    3 ar
   5    2   32 1
   6    3   19 ar
   7    3   33 1
   8    4    5 ar
   9    4    6 1
  10    4   19 ar
  11    5   34 1
  12    6   18 ar
  13    6   22 ar
  14    7    8 1
  15    7   35 1
  16    7   36 1
  17    8    9 1
  18    8   10 am
  19    9   20 1
  20    9   21 1
  21    9   37 1
  22   10   11 1
  23   10   16 2
  24   11   12 2
  25   11   13 1
  26   12   15 1
  27   12   38 1
  28   13   14 2
  29   14   15 1
  30   14   39 1
  31   15   17 1
  32   17   40 1
  33   17   41 1
  34   17   42 1
  35   18   25 ar
  36   18   43 1
  37   20   44 1
  38   20   45 1
  39   20   46 1
  40   21   47 1
  41   21   48 1
  42   21   49 1
  43   22   23 ar
  44   22   50 1
  45   23   24 ar
  46   23   27 1
  47   24   25 ar
  48   24   26 1
  49   25   51 1
  50   26   30 1
  51   28   30 1
  52   29   30 1
  53   30   31 1

#	End of record

