#	Name: ASD01913259
#	Creating user name:	WinNT
#	Creation time:	15. 06. 2019 20:01

#	Modifying user name:	WinNT
#	Modification time:	15. 06. 2019 20:01

#	Program:	/corina/corina34_cracker 3.40 0067  02.08.2006

@<TRIPOS>MOLECULE
ASD01913259
  46   49    0    0    0
SMALL
NO_CHARGES


@<TRIPOS>ATOM
   1 N1             5.2268     8.3103     2.0995 N.ar    
   2 C2             6.3712     8.9574     2.1057 C.ar    
   3 C3             7.2656     8.8185     1.0596 C.ar    
   4 C4             6.9309     7.9888     0.0021 C.ar    
   5 C5             5.7100     7.3232     0.0325 C.ar    
   6 C6             5.3576     6.4367    -1.1338 C.3     
   7 N7             4.1798     5.6278    -0.8004 N.am    
   8 C8             3.0593     6.3098    -0.1319 C.3     
   9 C9             3.5476     6.7913     1.2333 C.3     
  10 C10            4.8718     7.5000     1.1095 C.ar    
  11 C11            4.1256     4.3137    -1.0946 C.2     
  12 O12            3.1866     3.6434    -0.7119 O.2     
  13 C13            5.2086     3.6872    -1.8828 C.ar    
  14 C14            5.8413     4.4064    -2.8943 C.ar    
  15 C15            6.8622     3.8079    -3.6326 C.ar    
  16 C16            7.2431     2.4916    -3.3527 C.ar    
  17 C17            6.6111     1.7862    -2.3489 C.ar    
  18 C18            5.6031     2.3753    -1.6109 C.ar    
  19 C19            8.3454     1.8422    -4.1490 C.3     
  20 F20            8.5454     0.5361    -3.6894 F       
  21 F21            7.9878     1.8111    -5.5012 F       
  22 F22            9.5263     2.5765    -3.9957 F       
  23 C23            7.5182     4.5390    -4.6747 C.1     
  24 C24            8.0560     5.1383    -5.5290 C.1     
  25 C25            8.7119     5.8694    -6.5710 C.ar    
  26 C26            9.7339     5.2631    -7.3064 C.ar    
  27 C27           10.3568     5.9828    -8.3096 C.ar    
  28 C28            9.9405     7.2859    -8.5480 C.ar    
  29 C29            8.9227     7.8250    -7.7826 C.ar    
  30 N30            8.3406     7.1184    -6.8356 N.ar    
  31 Br31           8.9143     9.7446     1.0726 Br      
  32 H32            6.6154     9.6040     2.9356 H       
  33 H33            7.6057     7.8614    -0.8314 H       
  34 H34            5.1391     7.0536    -2.0054 H       
  35 H35            6.1980     5.7793    -1.3567 H       
  36 H36            2.7373     7.1624    -0.7298 H       
  37 H37            2.2295     5.6151    -0.0024 H       
  38 H38            2.8127     7.4765     1.6558 H       
  39 H39            3.6602     5.9338     1.8967 H       
  40 H40            5.5425     5.4224    -3.1061 H       
  41 H41            6.9089     0.7700    -2.1366 H       
  42 H42            5.1160     1.8187    -0.8239 H       
  43 H43           10.0331     4.2473    -7.0941 H       
  44 H44           11.1500     5.5412    -8.8946 H       
  45 H45           10.4078     7.8735    -9.3243 H       
  46 H46            8.5977     8.8383    -7.9667 H       
@<TRIPOS>BOND
   1    1    2 ar
   2    1   10 ar
   3    2    3 ar
   4    2   32 1
   5    3    4 ar
   6    3   31 1
   7    4    5 ar
   8    4   33 1
   9    5    6 1
  10    5   10 ar
  11    6    7 1
  12    6   34 1
  13    6   35 1
  14    7    8 1
  15    7   11 am
  16    8    9 1
  17    8   36 1
  18    8   37 1
  19    9   10 1
  20    9   38 1
  21    9   39 1
  22   11   12 2
  23   11   13 1
  24   13   14 ar
  25   13   18 ar
  26   14   15 ar
  27   14   40 1
  28   15   16 ar
  29   15   23 1
  30   16   17 ar
  31   16   19 1
  32   17   18 ar
  33   17   41 1
  34   18   42 1
  35   19   20 1
  36   19   21 1
  37   19   22 1
  38   23   24 3
  39   24   25 1
  40   25   26 ar
  41   25   30 ar
  42   26   27 ar
  43   26   43 1
  44   27   28 ar
  45   27   44 1
  46   28   29 ar
  47   28   45 1
  48   29   30 ar
  49   29   46 1

#	End of record

