#	Name: ASD03092128
#	Creating user name:	WinNT
#	Creation time:	15. 06. 2019 20:32

#	Modifying user name:	WinNT
#	Modification time:	15. 06. 2019 20:32

#	Program:	/corina/corina34_cracker 3.40 0067  02.08.2006

@<TRIPOS>MOLECULE
ASD03092128
  49   51    0    0    0
SMALL
NO_CHARGES


@<TRIPOS>ATOM
   1 N1             0.2782     0.9016    -0.3967 N.pl3   
   2 C2             0.0768    -0.3546     0.0935 C.2     
   3 C3            -1.2642    -0.5000     0.3080 C.2     
   4 C4            -1.8892     0.6976    -0.0614 C.2     
   5 N5            -0.9679     1.5362    -0.4763 N.2     
   6 N6            -3.2632     0.9588     0.0062 N.pl3   
   7 C7            -3.7461     2.2376    -0.2819 C.ar    
   8 C8            -5.0269     2.3987    -0.7944 C.ar    
   9 C9            -5.5014     3.6656    -1.0784 C.ar    
  10 C10           -4.7015     4.7720    -0.8524 C.ar    
  11 C11           -2.9481     3.3516    -0.0511 C.ar    
  12 C12            1.1193    -1.3733     0.3461 C.ar    
  13 C13            1.5692     1.4860    -0.7681 C.3     
  14 C14            2.3549    -1.3155    -0.3086 C.ar    
  15 C15            3.2984    -2.2858    -0.0429 C.ar    
  16 N16            3.0483    -3.2574     0.8141 N.ar    
  17 C17            1.8971    -3.3489     1.4525 C.ar    
  18 C18            0.8995    -2.4182     1.2508 C.ar    
  19 C19            1.6714    -4.4827     2.4192 C.3     
  20 C20           -3.4257     4.6140    -0.3426 C.ar    
  21 Cl21          -7.1018     3.8688    -1.7195 Cl      
  22 C22            4.6328    -2.2358    -0.7412 C.3     
  23 C23            1.8067     1.2836    -2.2424 C.2     
  24 N24            2.9389     1.7423    -2.8118 N.am    
  25 O25            0.9790     0.7079    -2.9165 O.2     
  26 C26            3.1697     1.5456    -4.2451 C.3     
  27 C27            3.9386     2.4377    -1.9975 C.3     
  28 H28           -1.7551    -1.3813     0.6937 H       
  29 H29           -3.8797     0.2518     0.2531 H       
  30 H30           -5.6511     1.5353    -0.9711 H       
  31 H31           -5.0741     5.7609    -1.0749 H       
  32 H32           -1.9534     3.2297     0.3515 H       
  33 H33            1.5631     2.5527    -0.5441 H       
  34 H34            2.3642     1.0004    -0.2020 H       
  35 H35            2.5662    -0.5233    -1.0115 H       
  36 H36           -0.0402    -2.4991     1.7769 H       
  37 H37            1.9944    -4.1806     3.4154 H       
  38 H38            0.6113    -4.7352     2.4420 H       
  39 H39            2.2452    -5.3526     2.0994 H       
  40 H40           -2.8037     5.4795    -0.1680 H       
  41 H41            5.3322    -1.6478    -0.1469 H       
  42 H42            5.0189    -3.2482    -0.8600 H       
  43 H43            4.5127    -1.7754    -1.7219 H       
  44 H44            2.3748     2.0311    -4.8111 H       
  45 H45            4.1303     1.9804    -4.5214 H       
  46 H46            3.1759     0.4789    -4.4690 H       
  47 H47            4.6491     1.7140    -1.5980 H       
  48 H48            4.4680     3.1642    -2.6141 H       
  49 H49            3.4428     2.9524    -1.1745 H       
@<TRIPOS>BOND
   1    1    2 1
   2    1   13 1
   3    1    5 1
   4    2    3 2
   5    2   12 1
   6    3    4 1
   7    3   28 1
   8    4    5 2
   9    4    6 1
  10    6    7 1
  11    6   29 1
  12    7    8 ar
  13    7   11 ar
  14    8    9 ar
  15    8   30 1
  16    9   10 ar
  17    9   21 1
  18   10   20 ar
  19   10   31 1
  20   11   20 ar
  21   11   32 1
  22   12   14 ar
  23   12   18 ar
  24   13   23 1
  25   13   33 1
  26   13   34 1
  27   14   15 ar
  28   14   35 1
  29   15   16 ar
  30   15   22 1
  31   16   17 ar
  32   17   18 ar
  33   17   19 1
  34   18   36 1
  35   19   37 1
  36   19   38 1
  37   19   39 1
  38   20   40 1
  39   22   41 1
  40   22   42 1
  41   22   43 1
  42   23   24 am
  43   23   25 2
  44   24   26 1
  45   24   27 1
  46   26   44 1
  47   26   45 1
  48   26   46 1
  49   27   47 1
  50   27   48 1
  51   27   49 1

#	End of record

