#	Name: ASD03740266
#	Creating user name:	WinNT
#	Creation time:	15. 06. 2019 20:47

#	Modifying user name:	WinNT
#	Modification time:	15. 06. 2019 20:47

#	Program:	/corina/corina34_cracker 3.40 0067  02.08.2006

@<TRIPOS>MOLECULE
ASD03740266
  54   57    0    0    0
SMALL
NO_CHARGES


@<TRIPOS>ATOM
   1 C1            -0.0187     1.5258     0.0104 C.3     
   2 C2             0.0021    -0.0041     0.0020 C.3     
   3 C3             1.3165     0.7789    -0.0063 C.3     
   4 C4            -0.1182    -2.3582     7.1165 C.ar    
   5 C5            -0.9985    -3.2551     7.7283 C.ar    
   6 C6            -0.8458    -3.5642     9.0629 C.ar    
   7 C7             0.1781    -2.9871     9.7983 C.ar    
   8 C8             1.0542    -2.0964     9.1972 C.ar    
   9 C9             0.9123    -1.7801     7.8631 C.ar    
  10 C10           -0.3780    -0.7121     1.2769 C.ar    
  11 C11           -1.4646    -1.5833     1.2909 C.ar    
  12 C12           -1.8244    -2.2404     2.4564 C.ar    
  13 C13            0.3533    -0.5010     2.4250 C.ar    
  14 C14           -0.0017    -1.1575     3.6004 C.ar    
  15 C15           -1.0992    -2.0322     3.6221 C.ar    
  16 O16           -1.2182    -2.5241     4.8734 O.3     
  17 C17           -0.2723    -2.0280     5.6879 C.2     
  18 C18            0.5425    -1.1662     4.9723 C.2     
  19 C19            1.6975    -0.4137     5.4743 C.2     
  20 O20            1.5426     0.7003     5.9392 O.2     
  21 N21            2.9301    -0.9561     5.4208 N.am    
  22 C22            4.0835    -0.2047     5.9222 C.3     
  23 N23           -2.1979    -1.7959     0.1206 N.am    
  24 S24           -1.6931    -2.9266    -0.9789 S.o2    
  25 O25           -2.1445    -2.4252    -2.2295 O.2     
  26 O26           -0.3066    -3.0827    -0.7096 O.2     
  27 C27           -2.6020    -4.4312    -0.5308 C.3     
  28 C28           -3.4134    -1.0185    -0.1336 C.3     
  29 C29           -3.0393     0.3145    -0.7846 C.3     
  30 O30           -2.4691     0.0723    -2.0724 O.3     
  31 F31            0.3224    -3.2936    11.1061 F       
  32 H32           -0.3248     2.0300    -0.9061 H       
  33 H33           -0.3072     2.0201     0.9381 H       
  34 H34           -0.2904    -0.5063    -0.9201 H       
  35 H35            1.8888     0.7918    -0.9339 H       
  36 H36            1.9064     0.7818     0.9103 H       
  37 H37           -1.7969    -3.7047     7.1566 H       
  38 H38           -1.5254    -4.2571     9.5367 H       
  39 H39            1.8494    -1.6495     9.7754 H       
  40 H40            1.5958    -1.0866     7.3958 H       
  41 H41           -2.6686    -2.9140     2.4583 H       
  42 H42            1.1988     0.1708     2.4134 H       
  43 H43            3.0536    -1.8440     5.0502 H       
  44 H44            4.1811     0.7264     5.3640 H       
  45 H45            3.9399     0.0187     6.9793 H       
  46 H46            4.9877    -0.8003     5.7963 H       
  47 H47           -3.6619    -4.2925    -0.7442 H       
  48 H48           -2.2215    -5.2719    -1.1109 H       
  49 H49           -2.4687    -4.6332     0.5320 H       
  50 H50           -4.0692    -1.5775    -0.8011 H       
  51 H51           -3.9284    -0.8309     0.8086 H       
  52 H52           -3.9327     0.9295    -0.8927 H       
  53 H53           -2.3142     0.8340    -0.1581 H       
  54 H54           -2.2077     0.8750    -2.5441 H       
@<TRIPOS>BOND
   1    1    2 1
   2    1    3 1
   3    1   32 1
   4    1   33 1
   5    2    3 1
   6    2   10 1
   7    2   34 1
   8    3   35 1
   9    3   36 1
  10    4    5 ar
  11    4    9 ar
  12    4   17 1
  13    5    6 ar
  14    5   37 1
  15    6    7 ar
  16    6   38 1
  17    7    8 ar
  18    7   31 1
  19    8    9 ar
  20    8   39 1
  21    9   40 1
  22   10   11 ar
  23   10   13 ar
  24   11   12 ar
  25   11   23 1
  26   12   15 ar
  27   12   41 1
  28   13   14 ar
  29   13   42 1
  30   14   15 ar
  31   14   18 1
  32   15   16 1
  33   16   17 1
  34   17   18 2
  35   18   19 1
  36   19   20 2
  37   19   21 am
  38   21   22 1
  39   21   43 1
  40   22   44 1
  41   22   45 1
  42   22   46 1
  43   23   24 am
  44   23   28 1
  45   24   25 2
  46   24   26 2
  47   24   27 1
  48   27   47 1
  49   27   48 1
  50   27   49 1
  51   28   29 1
  52   28   50 1
  53   28   51 1
  54   29   30 1
  55   29   52 1
  56   29   53 1
  57   30   54 1

#	End of record

