#	Name: ASD00310138
#	Creating user name:	WinNT
#	Creation time:	15. 06. 2019 18:33

#	Modifying user name:	WinNT
#	Modification time:	15. 06. 2019 18:33

#	Program:	/corina/corina34_cracker 3.40 0067  02.08.2006

@<TRIPOS>MOLECULE
ASD00310138
  30   31    0    0    0
SMALL
NO_CHARGES


@<TRIPOS>ATOM
   1 N1            -0.0179     1.4660     0.0101 N.am    
   2 C2             0.0021    -0.0041     0.0020 C.3     
   3 C3             1.4812    -0.4420    -0.0417 C.3     
   4 C4             2.1956     0.8049    -0.6268 C.3     
   5 C5             1.3719     1.9577    -0.0005 C.3     
   6 S6            -1.3765     2.4127     0.0219 S.o2    
   7 O7            -0.9598     3.6312    -0.5788 O.2     
   8 O8            -2.3742     1.6015    -0.5828 O.2     
   9 C9            -1.7392     2.6620     1.7817 C.3     
  10 C10           -0.6521    -0.5324     1.2526 C.ar    
  11 C11           -1.4755    -1.6408     1.1863 C.ar    
  12 C12           -2.0753    -2.1260     2.3331 C.ar    
  13 C13           -1.8516    -1.5023     3.5473 C.ar    
  14 C14           -1.0277    -0.3932     3.6132 C.ar    
  15 C15           -0.4241     0.0881     2.4667 C.ar    
  16 Br16          -2.6725    -2.1652     5.1166 Br      
  17 H17           -0.5211    -0.3771    -0.8784 H       
  18 H18            1.8482    -0.6617     0.9609 H       
  19 H19            1.6093    -1.3030    -0.6977 H       
  20 H20            3.2356     0.8471    -0.3030 H       
  21 H21            2.1257     0.8207    -1.7144 H       
  22 H22            1.4517     2.8565    -0.6119 H       
  23 H23            1.7113     2.1579     1.0158 H       
  24 H24           -0.8942     3.1569     2.2603 H       
  25 H25           -2.6296     3.2822     1.8849 H       
  26 H26           -1.9119     1.6965     2.2574 H       
  27 H27           -1.6504    -2.1276     0.2382 H       
  28 H28           -2.7189    -2.9918     2.2811 H       
  29 H29           -0.8530     0.0943     4.5609 H       
  30 H30            0.2226     0.9516     2.5187 H       
@<TRIPOS>BOND
   1    1    2 1
   2    1    5 1
   3    1    6 am
   4    2    3 1
   5    2   10 1
   6    2   17 1
   7    3    4 1
   8    3   18 1
   9    3   19 1
  10    4    5 1
  11    4   20 1
  12    4   21 1
  13    5   22 1
  14    5   23 1
  15    6    7 2
  16    6    8 2
  17    6    9 1
  18    9   24 1
  19    9   25 1
  20    9   26 1
  21   10   11 ar
  22   10   15 ar
  23   11   12 ar
  24   11   27 1
  25   12   13 ar
  26   12   28 1
  27   13   14 ar
  28   13   16 1
  29   14   15 ar
  30   14   29 1
  31   15   30 1

#	End of record

