#	Name: ASD05213026
#	Creating user name:	WinNT
#	Creation time:	15. 06. 2019 20:57

#	Modifying user name:	WinNT
#	Modification time:	15. 06. 2019 20:57

#	Program:	/corina/corina34_cracker 3.40 0067  02.08.2006

@<TRIPOS>MOLECULE
ASD05213026
  29   31    0    0    0
SMALL
NO_CHARGES


@<TRIPOS>ATOM
   1 S1            -0.0218     1.7577     0.0117 S.3     
   2 C2            -0.3039     0.0192    -0.0373 C.ar    
   3 C3            -0.2411     2.0549     1.7346 C.2     
   4 N4            -0.2330     3.2360     2.2993 N.2     
   5 C5            -0.4316     3.0816     3.6367 C.ar    
   6 C6            -0.5654     1.7040     3.8670 C.ar    
   7 O7            -0.4470     1.1018     2.6612 O.3     
   8 C8            -0.5157     3.9727     4.7076 C.ar    
   9 C9            -0.7294     3.4924     5.9810 C.ar    
  10 C10           -0.8606     2.1304     6.2041 C.ar    
  11 C11           -0.7799     1.2382     5.1539 C.ar    
  12 C12           -1.5995    -0.4779     0.0254 C.ar    
  13 C13           -1.8171    -1.8412    -0.0137 C.ar    
  14 C14           -0.7469    -2.7111    -0.1146 C.ar    
  15 C15            0.5445    -2.2196    -0.1773 C.ar    
  16 C16            0.7688    -0.8576    -0.1445 C.ar    
  17 N17           -2.7457     0.4525     0.1345 N.pl3   
  18 O18           -3.8814     0.0159     0.1895 O.2     
  19 O19           -2.5530     1.6547     0.1694 O.2     
  20 N20           -0.9839    -4.1718    -0.1553 N.pl3   
  21 O21           -2.1205    -4.6061    -0.0998 O.2     
  22 O22           -0.0423    -4.9392    -0.2442 O.2     
  23 H23           -0.4134     5.0345     4.5387 H       
  24 H24           -0.7947     4.1810     6.8105 H       
  25 H25           -1.0272     1.7648     7.2066 H       
  26 H26           -0.8834     0.1786     5.3352 H       
  27 H27           -2.8241    -2.2284     0.0350 H       
  28 H28            1.3780    -2.9017    -0.2561 H       
  29 H29            1.7773    -0.4745    -0.1938 H       
@<TRIPOS>BOND
   1    1    2 1
   2    1    3 1
   3    2   12 ar
   4    2   16 ar
   5    3    4 2
   6    3    7 1
   7    4    5 1
   8    5    6 ar
   9    5    8 ar
  10    6    7 1
  11    6   11 ar
  12    8    9 ar
  13    8   23 1
  14    9   10 ar
  15    9   24 1
  16   10   11 ar
  17   10   25 1
  18   11   26 1
  19   12   13 ar
  20   12   17 1
  21   13   14 ar
  22   13   27 1
  23   14   15 ar
  24   14   20 1
  25   15   16 ar
  26   15   28 1
  27   16   29 1
  28   17   18 2
  29   17   19 2
  30   20   21 2
  31   20   22 2

#	End of record

