#	Name: ASD01152506
#	Creating user name:	WinNT
#	Creation time:	15. 06. 2019 19:06

#	Modifying user name:	WinNT
#	Modification time:	15. 06. 2019 19:06

#	Program:	/corina/corina34_cracker 3.40 0067  02.08.2006

@<TRIPOS>MOLECULE
ASD01152506
  46   48    0    0    0
SMALL
NO_CHARGES


@<TRIPOS>ATOM
   1 C1             0.1114     1.1571    -0.6959 C.2     
   2 N2             0.0189    -0.1436    -0.6175 N.2     
   3 N3            -1.1205    -0.7661    -0.1080 N.am    
   4 C4            -2.2615    -0.0993     0.1330 C.2     
   5 C5            -2.3924     1.3536    -0.2592 C.3     
   6 C6            -1.0084     1.9736    -0.2035 C.2     
   7 C7            -2.9557     1.4586    -1.6778 C.3     
   8 O8            -0.8358     3.0970     0.2224 O.2     
   9 C9            -1.0734    -2.1389     0.1623 C.ar    
  10 O10           -3.1907    -0.6664     0.6673 O.2     
  11 C11           -3.1985     2.9070    -2.0160 C.ar    
  12 C12           -0.0101    -2.6693     0.8797 C.ar    
  13 C13           -2.0939    -2.9703    -0.2824 C.ar    
  14 C14           -2.0490    -4.3251    -0.0160 C.ar    
  15 C15           -0.9884    -4.8582     0.6946 C.ar    
  16 C16            0.0334    -4.0297     1.1463 C.ar    
  17 C17           -2.1976     3.6559    -2.6063 C.ar    
  18 C18           -2.4196     4.9843    -2.9167 C.ar    
  19 C19           -3.6439     5.5645    -2.6364 C.ar    
  20 C20           -4.6452     4.8146    -2.0455 C.ar    
  21 C21           -4.4239     3.4847    -1.7408 C.ar    
  22 F22           -0.9477    -6.1834     0.9543 F       
  23 Cl23          -3.9234     7.2331    -3.0254 Cl      
  24 O24            1.2212     1.7435    -1.2163 O.3     
  25 C25            2.2637     0.8753    -1.6654 C.3     
  26 N26            1.1045    -4.5683     1.8702 N.am    
  27 C27            1.7680    -3.8044     2.7605 C.2     
  28 O28            1.4983    -2.6269     2.8693 O.2     
  29 C29            2.8451    -4.4133     3.6209 C.3     
  30 H30           -3.0529     1.8665     0.4399 H       
  31 H31           -2.2419     1.0353    -2.3844 H       
  32 H32           -3.8952     0.9092    -1.7373 H       
  33 H33            0.7820    -2.0238     1.2294 H       
  34 H34           -2.9234    -2.5568    -0.8368 H       
  35 H35           -2.8435    -4.9693    -0.3628 H       
  36 H36           -1.2418     3.2029    -2.8248 H       
  37 H37           -1.6375     5.5693    -3.3776 H       
  38 H38           -5.6011     5.2670    -1.8265 H       
  39 H39           -5.2054     2.8992    -1.2796 H       
  40 H40            1.8808     0.2239    -2.4511 H       
  41 H41            3.0888     1.4704    -2.0568 H       
  42 H42            2.6166     0.2693    -0.8309 H       
  43 H43            1.3688    -5.4911     1.7308 H       
  44 H44            2.9446    -5.4724     3.3831 H       
  45 H45            3.7917    -3.9076     3.4302 H       
  46 H46            2.5780    -4.3003     4.6716 H       
@<TRIPOS>BOND
   1    1    2 2
   2    1   24 1
   3    1    6 1
   4    2    3 1
   5    3    4 am
   6    3    9 1
   7    4    5 1
   8    4   10 2
   9    5    6 1
  10    5    7 1
  11    5   30 1
  12    6    8 2
  13    7   11 1
  14    7   31 1
  15    7   32 1
  16    9   12 ar
  17    9   13 ar
  18   11   17 ar
  19   11   21 ar
  20   12   16 ar
  21   12   33 1
  22   13   14 ar
  23   13   34 1
  24   14   15 ar
  25   14   35 1
  26   15   16 ar
  27   15   22 1
  28   16   26 1
  29   17   18 ar
  30   17   36 1
  31   18   19 ar
  32   18   37 1
  33   19   20 ar
  34   19   23 1
  35   20   21 ar
  36   20   38 1
  37   21   39 1
  38   24   25 1
  39   25   40 1
  40   25   41 1
  41   25   42 1
  42   26   27 am
  43   26   43 1
  44   27   28 2
  45   27   29 1
  46   29   44 1
  47   29   45 1
  48   29   46 1

#	End of record

