#	Name: ASD01208472
#	Creating user name:	WinNT
#	Creation time:	15. 06. 2019 19:09

#	Modifying user name:	WinNT
#	Modification time:	15. 06. 2019 19:09

#	Program:	/corina/corina34_cracker 3.40 0067  02.08.2006

@<TRIPOS>MOLECULE
ASD01208472
  93   96    0    0    0
SMALL
NO_CHARGES


@<TRIPOS>ATOM
   1 O1            -1.2400     4.4465     0.0334 O.3     
   2 C2            -2.2150     3.5780     0.3781 C.2     
   3 N3            -1.8181     2.3399     0.4294 N.2     
   4 C4            -0.3809     2.2973     0.0967 C.3     
   5 C5             0.0262     3.7848     0.2308 C.3     
   6 C6             1.0277     4.1802    -0.8563 C.3     
   7 O7             1.3533     5.5652    -0.7230 O.3     
   8 Si8            2.5159     6.0749    -1.7472 Si      
   9 C9             2.7432     7.9147    -1.5624 C.3     
  10 C10            1.3893     8.6128    -1.7055 C.3     
  11 C11            3.3312     8.2200    -0.1833 C.3     
  12 C12            4.1166     5.2084    -1.3502 C.3     
  13 C13            5.2775     5.9532    -2.0123 C.3     
  14 C14            4.3227     5.1871     0.1657 C.3     
  15 C15            2.0157     5.6838    -3.4986 C.3     
  16 C16            0.5649     6.1148    -3.7231 C.3     
  17 C17            2.9274     6.4366    -4.4696 C.3     
  18 N18           -4.0764     5.2798     0.6317 N.pl3   
  19 C19           -3.5951     3.9924     0.6682 C.2     
  20 C20           -4.6329     3.1584     1.0237 C.2     
  21 C21           -5.7654     3.9535     1.2066 C.2     
  22 C22           -5.4024     5.2583     0.9604 C.2     
  23 C23           -6.2942     6.4346     1.0387 C.ar    
  24 C24           -7.6358     6.2736     1.3880 C.ar    
  25 C25           -8.4679     7.3781     1.4601 C.ar    
  26 C26           -7.9697     8.6438     1.1854 C.ar    
  27 C27           -6.6365     8.8084     0.8377 C.ar    
  28 C28           -5.7958     7.7094     0.7693 C.ar    
  29 O29           -6.1536    10.0500     0.5696 O.3     
  30 C30           -5.9738    10.3972    -0.7318 C.ar    
  31 C31           -5.3879    11.6136    -1.0519 C.ar    
  32 C32           -5.2063    11.9642    -2.3757 C.ar    
  33 C33           -5.6078    11.1042    -3.3812 C.ar    
  34 C34           -6.1923     9.8917    -3.0649 C.ar    
  35 C35           -6.3706     9.5336    -1.7427 C.ar    
  36 S36           -5.3747    11.5545    -5.0687 S.o2    
  37 O37           -6.3830    10.8356    -5.7657 O.2     
  38 O38           -5.3655    12.9754    -5.0542 O.2     
  39 C39           -3.7307    10.9115    -5.4858 C.3     
  40 O40           -9.7745     7.2223     1.8002 O.3     
  41 C41          -10.5449     8.4126     1.9783 C.3     
  42 C42          -11.7212     8.1237     2.9130 C.3     
  43 C43          -11.0746     8.8848     0.6228 C.3     
  44 O44          -12.6061     7.1902     2.2905 O.3     
  45 C45          -13.7448     6.8506     3.0843 C.3     
  46 H46            0.1652     1.6788     0.8089 H       
  47 H47           -0.2278     1.9423    -0.9224 H       
  48 H48            0.4260     3.9931     1.2232 H       
  49 H49            1.9331     3.5824    -0.7510 H       
  50 H50            0.5875     4.0032    -1.8376 H       
  51 H51            3.4219     8.2763    -2.3349 H       
  52 H52            0.6700     8.1529    -1.0278 H       
  53 H53            1.4972     9.6690    -1.4585 H       
  54 H54            1.0362     8.5139    -2.7319 H       
  55 H55            4.3468     7.8281    -0.1265 H       
  56 H56            3.3486     9.2985    -0.0263 H       
  57 H57            2.7172     7.7508     0.5855 H       
  58 H58            4.0793     4.1860    -1.7262 H       
  59 H59            6.2110     5.4309    -1.8028 H       
  60 H60            5.1169     5.9921    -3.0897 H       
  61 H61            5.3317     6.9672    -1.6162 H       
  62 H62            3.4450     4.7541     0.6456 H       
  63 H63            5.2006     4.5868     0.4046 H       
  64 H64            4.4693     6.2050     0.5268 H       
  65 H65            2.1071     4.6115    -3.6717 H       
  66 H66            0.4992     7.2022    -3.6869 H       
  67 H67            0.2280     5.7626    -4.6980 H       
  68 H68           -0.0660     5.6866    -2.9441 H       
  69 H69            3.9359     6.0269    -4.4129 H       
  70 H70            2.5470     6.3262    -5.4850 H       
  71 H71            2.9490     7.4932    -4.2026 H       
  72 H72           -3.5599     6.0713     0.4132 H       
  73 H73           -4.5799     2.0859     1.1391 H       
  74 H74           -6.7486     3.6076     1.4897 H       
  75 H75           -8.0246     5.2888     1.6013 H       
  76 H76           -8.6215     9.5030     1.2419 H       
  77 H77           -4.7571     7.8389     0.5030 H       
  78 H78           -5.0745    12.2858    -0.2669 H       
  79 H79           -4.7507    12.9110    -2.6254 H       
  80 H80           -6.5057     9.2221    -3.8522 H       
  81 H81           -6.8228     8.5843    -1.4961 H       
  82 H82           -3.7176     9.8303    -5.3476 H       
  83 H83           -3.5010    11.1477    -6.5248 H       
  84 H84           -2.9855    11.3699    -4.8357 H       
  85 H85           -9.9171     9.1900     2.4138 H       
  86 H86          -11.3483     7.7035     3.8471 H       
  87 H87          -12.2570     9.0501     3.1197 H       
  88 H88          -11.7024     8.1075     0.1872 H       
  89 H89          -11.6623     9.7928     0.7586 H       
  90 H90          -10.2366     9.0907    -0.0431 H       
  91 H91          -14.3663     6.1381     2.5419 H       
  92 H92          -13.4139     6.4039     4.0219 H       
  93 H93          -14.3226     7.7505     3.2945 H       
@<TRIPOS>BOND
   1    1    2 1
   2    1    5 1
   3    2    3 2
   4    2   19 1
   5    3    4 1
   6    4    5 1
   7    4   46 1
   8    4   47 1
   9    5    6 1
  10    5   48 1
  11    6    7 1
  12    6   49 1
  13    6   50 1
  14    7    8 1
  15    8    9 1
  16    8   12 1
  17    8   15 1
  18    9   10 1
  19    9   11 1
  20    9   51 1
  21   10   52 1
  22   10   53 1
  23   10   54 1
  24   11   55 1
  25   11   56 1
  26   11   57 1
  27   12   13 1
  28   12   14 1
  29   12   58 1
  30   13   59 1
  31   13   60 1
  32   13   61 1
  33   14   62 1
  34   14   63 1
  35   14   64 1
  36   15   16 1
  37   15   17 1
  38   15   65 1
  39   16   66 1
  40   16   67 1
  41   16   68 1
  42   17   69 1
  43   17   70 1
  44   17   71 1
  45   18   19 1
  46   18   22 1
  47   18   72 1
  48   19   20 2
  49   20   21 1
  50   20   73 1
  51   21   22 2
  52   21   74 1
  53   22   23 1
  54   23   24 ar
  55   23   28 ar
  56   24   25 ar
  57   24   75 1
  58   25   26 ar
  59   25   40 1
  60   26   27 ar
  61   26   76 1
  62   27   28 ar
  63   27   29 1
  64   28   77 1
  65   29   30 1
  66   30   31 ar
  67   30   35 ar
  68   31   32 ar
  69   31   78 1
  70   32   33 ar
  71   32   79 1
  72   33   34 ar
  73   33   36 1
  74   34   35 ar
  75   34   80 1
  76   35   81 1
  77   36   37 2
  78   36   38 2
  79   36   39 1
  80   39   82 1
  81   39   83 1
  82   39   84 1
  83   40   41 1
  84   41   42 1
  85   41   43 1
  86   41   85 1
  87   42   44 1
  88   42   86 1
  89   42   87 1
  90   43   88 1
  91   43   89 1
  92   43   90 1
  93   44   45 1
  94   45   91 1
  95   45   92 1
  96   45   93 1

#	End of record

