#	Name: ASD04910529
#	Creating user name:	WinNT
#	Creation time:	15. 06. 2019 20:56

#	Modifying user name:	WinNT
#	Modification time:	15. 06. 2019 20:56

#	Program:	/corina/corina34_cracker 3.40 0067  02.08.2006

@<TRIPOS>MOLECULE
ASD04910529
  63   66    0    0    0
SMALL
NO_CHARGES


@<TRIPOS>ATOM
   1 C1            -0.0184     1.5028     0.0103 C.2     
   2 C2             0.0021    -0.0041     0.0020 C.3     
   3 C3             1.4513    -0.4944    -0.0145 C.3     
   4 O4             1.0197     2.1211     0.0037 O.2     
   5 O5            -1.1898     2.1580     0.0194 O.3     
   6 C6             2.6473    -2.6171    -0.0373 C.2     
   7 C7             2.6674    -4.0954    -0.0454 C.ar    
   8 C8             3.8837    -4.7799    -0.0607 C.ar    
   9 C9             3.8954    -6.1594    -0.0677 C.ar    
  10 C10            2.7049    -6.8644    -0.0601 C.ar    
  11 C11            1.4958    -6.1920    -0.0450 C.ar    
  12 C12            1.4701    -4.8127    -0.0320 C.ar    
  13 O13            3.6916    -1.9951    -0.0439 O.2     
  14 N14            1.4712    -1.9592    -0.0225 N.am    
  15 C15            2.7254    -8.3712    -0.0689 C.3     
  16 N16            1.6827    -8.8789     0.8263 N.pl3   
  17 C17            2.9204   -10.9354     1.1244 C.ar    
  18 C18            1.8098   -10.1485     1.3985 C.ar    
  19 C19            0.8237   -10.6401     2.2515 C.ar    
  20 C20            0.9920   -11.9015     2.7950 C.ar    
  21 C21            2.1299   -12.6308     2.4747 C.ar    
  22 N22            3.0466   -12.1330     1.6609 N.ar    
  23 N23            2.3090   -13.9075     3.0195 N.pl3   
  24 N24            1.4301   -14.5639     3.8909 N.2     
  25 C25            1.9381   -15.7344     4.1804 C.2     
  26 C26            3.1564   -15.8655     3.5050 C.2     
  27 C27            3.3629   -14.7335     2.7930 C.2     
  28 C28            4.0745   -17.0594     3.5571 C.3     
  29 F29            3.5225   -18.0360     4.3930 F       
  30 F30            4.2323   -17.5829     2.2693 F       
  31 F31            5.3210   -16.6678     4.0573 F       
  32 C32            2.1523   -10.9052    -2.9092 C.3     
  33 C33            2.4884   -10.4081    -1.5007 C.3     
  34 C34            2.4680    -8.8765    -1.4899 C.3     
  35 C35            1.0949    -8.3917    -1.9653 C.3     
  36 C36            0.8126    -8.9668    -3.3558 C.3     
  37 O37            0.8773   -10.3933    -3.3019 O.3     
  38 H38           -0.4983    -0.3791     0.8948 H       
  39 H39           -0.5153    -0.3696    -0.8850 H       
  40 H40            1.9516    -0.1193    -0.9073 H       
  41 H41            1.9686    -0.1289     0.8726 H       
  42 H42           -1.1523     3.1243     0.0245 H       
  43 H43            4.8137    -4.2307    -0.0674 H       
  44 H44            4.8359    -6.6902    -0.0796 H       
  45 H45            0.5700    -6.7482    -0.0391 H       
  46 H46            0.5257    -4.2891    -0.0157 H       
  47 H47            0.6378    -2.4556    -0.0172 H       
  48 H48            3.6993    -8.7233     0.2711 H       
  49 H49            0.9042    -8.3344     1.0221 H       
  50 H50            3.6873   -10.5640     0.4608 H       
  51 H51           -0.0509   -10.0505     2.4833 H       
  52 H52            0.2478   -12.3137     3.4603 H       
  53 H53            1.4928   -16.4735     4.8299 H       
  54 H54            4.2132   -14.5238     2.1610 H       
  55 H55            2.9139   -10.5593    -3.6081 H       
  56 H56            2.1234   -11.9948    -2.9128 H       
  57 H57            1.7496   -10.7872    -0.7947 H       
  58 H58            3.4797   -10.7612    -1.2167 H       
  59 H59            3.2414    -8.4968    -2.1576 H       
  60 H60            0.3279    -8.7301    -1.2686 H       
  61 H61            1.0896    -7.3028    -2.0135 H       
  62 H62           -0.1814    -8.6599    -3.6811 H       
  63 H63            1.5567    -8.5955    -4.0605 H       
@<TRIPOS>BOND
   1    1    2 1
   2    1    4 2
   3    1    5 1
   4    2    3 1
   5    2   38 1
   6    2   39 1
   7    3   14 1
   8    3   40 1
   9    3   41 1
  10    5   42 1
  11    6    7 1
  12    6   13 2
  13    6   14 am
  14    7    8 ar
  15    7   12 ar
  16    8    9 ar
  17    8   43 1
  18    9   10 ar
  19    9   44 1
  20   10   11 ar
  21   10   15 1
  22   11   12 ar
  23   11   45 1
  24   12   46 1
  25   14   47 1
  26   15   16 1
  27   15   34 1
  28   15   48 1
  29   16   18 1
  30   16   49 1
  31   17   18 ar
  32   17   22 ar
  33   17   50 1
  34   18   19 ar
  35   19   20 ar
  36   19   51 1
  37   20   21 ar
  38   20   52 1
  39   21   22 ar
  40   21   23 1
  41   23   24 1
  42   23   27 1
  43   24   25 2
  44   25   26 1
  45   25   53 1
  46   26   27 2
  47   26   28 1
  48   27   54 1
  49   28   29 1
  50   28   30 1
  51   28   31 1
  52   32   33 1
  53   32   37 1
  54   32   55 1
  55   32   56 1
  56   33   34 1
  57   33   57 1
  58   33   58 1
  59   34   35 1
  60   34   59 1
  61   35   36 1
  62   35   60 1
  63   35   61 1
  64   36   37 1
  65   36   62 1
  66   36   63 1

#	End of record

