#	Name: ASD04880542
#	Creating user name:	WinNT
#	Creation time:	15. 06. 2019 20:53

#	Modifying user name:	WinNT
#	Modification time:	15. 06. 2019 20:53

#	Program:	/corina/corina34_cracker 3.40 0067  02.08.2006

@<TRIPOS>MOLECULE
ASD04880542
  50   53    0    0    0
SMALL
NO_CHARGES


@<TRIPOS>ATOM
   1 C1            -0.0124     1.3677    -0.2553 C.ar    
   2 C2             0.0103    -0.0185    -0.2925 C.ar    
   3 C3             1.2261    -0.6995    -0.2810 C.ar    
   4 C4             2.4132     0.0062    -0.2327 C.ar    
   5 C5             2.3907     1.4032    -0.1956 C.ar    
   6 C6             1.1683     2.0791    -0.2070 C.ar    
   7 C7             3.6539     2.1615    -0.1446 C.2     
   8 N8             4.8330     1.6419    -0.1305 N.2     
   9 N9             5.8660     2.5757    -0.0810 N.am    
  10 C10            5.2847     3.9274    -0.0587 C.3     
  11 C11            3.7658     3.6689    -0.1073 C.3     
  12 C12            5.6702     4.6580     1.2292 C.3     
  13 C13            5.7300     4.7253    -1.2859 C.3     
  14 C14            7.1824     2.2880    -0.0570 C.2     
  15 C15            7.6293     0.8852     0.0430 C.ar    
  16 O16            8.0021     3.1845    -0.1178 O.2     
  17 C17            6.6974    -0.1330     0.2574 C.ar    
  18 C18            7.1166    -1.4425     0.3499 C.ar    
  19 C19            8.4639    -1.7549     0.2312 C.ar    
  20 C20            9.4003    -0.7420     0.0170 C.ar    
  21 C21            8.9856     0.5713    -0.0825 C.ar    
  22 O22            1.2443    -2.0589    -0.3167 O.3     
  23 C23            2.5257    -2.6912    -0.3023 C.3     
  24 C24           -2.3659     0.0462    -0.3488 C.3     
  25 O25           -1.1563    -0.7147    -0.3400 O.3     
  26 O26           10.6411    -1.3063    -0.0626 O.3     
  27 C27           10.5029    -2.6195     0.5113 C.3     
  28 O28            9.1200    -2.9491     0.2845 O.3     
  29 H29           -0.9568     1.8916    -0.2686 H       
  30 H30            3.3560    -0.5204    -0.2234 H       
  31 H31            1.1477     3.1586    -0.1784 H       
  32 H32            3.3301     4.1069    -1.0053 H       
  33 H33            3.2834     4.0661     0.7858 H       
  34 H34            6.7542     4.7621     1.2773 H       
  35 H35            5.2096     5.6459     1.2383 H       
  36 H36            5.3215     4.0866     2.0894 H       
  37 H37            5.4231     4.2011    -2.1910 H       
  38 H38            5.2691     5.7128    -1.2641 H       
  39 H39            6.8148     4.8304    -1.2770 H       
  40 H40            5.6483     0.1061     0.3511 H       
  41 H41            6.3945    -2.2283     0.5157 H       
  42 H42            9.7087     1.3553    -0.2524 H       
  43 H43            3.1003    -2.3677    -1.1702 H       
  44 H44            3.0569    -2.4150     0.6086 H       
  45 H45            2.3974    -3.7731    -0.3342 H       
  46 H46           -2.4218     0.6501     0.5569 H       
  47 H47           -2.3784     0.6986    -1.2219 H       
  48 H48           -3.2200    -0.6298    -0.3881 H       
  49 H49           11.1544    -3.3301     0.0027 H       
  50 H50           10.7206    -2.5954     1.5791 H       
@<TRIPOS>BOND
   1    1    2 ar
   2    1    6 ar
   3    1   29 1
   4    2   25 1
   5    2    3 ar
   6    3    4 ar
   7    3   22 1
   8    4    5 ar
   9    4   30 1
  10    5    6 ar
  11    5    7 1
  12    6   31 1
  13    7    8 2
  14    7   11 1
  15    8    9 1
  16    9   10 1
  17    9   14 am
  18   10   11 1
  19   10   12 1
  20   10   13 1
  21   11   32 1
  22   11   33 1
  23   12   34 1
  24   12   35 1
  25   12   36 1
  26   13   37 1
  27   13   38 1
  28   13   39 1
  29   14   15 1
  30   14   16 2
  31   15   17 ar
  32   15   21 ar
  33   17   18 ar
  34   17   40 1
  35   18   19 ar
  36   18   41 1
  37   19   28 1
  38   19   20 ar
  39   20   21 ar
  40   20   26 1
  41   21   42 1
  42   22   23 1
  43   23   43 1
  44   23   44 1
  45   23   45 1
  46   24   25 1
  47   24   46 1
  48   24   47 1
  49   24   48 1
  50   26   27 1
  51   27   28 1
  52   27   49 1
  53   27   50 1

#	End of record

