#	Name: ASD01880881
#	Creating user name:	WinNT
#	Creation time:	15. 06. 2019 19:41

#	Modifying user name:	WinNT
#	Modification time:	15. 06. 2019 19:41

#	Program:	/corina/corina34_cracker 3.40 0067  02.08.2006

@<TRIPOS>MOLECULE
ASD01880881
  58   61    0    0    0
SMALL
NO_CHARGES


@<TRIPOS>ATOM
   1 N1            -0.0169     1.3166     0.0134 N.ar    
   2 C2             0.0031    -0.0059     0.0028 C.ar    
   3 N3             1.1394    -0.6838    -0.0154 N.ar    
   4 C4             2.3068    -0.0569    -0.0240 C.ar    
   5 C5             2.3319     1.3240    -0.0139 C.ar    
   6 C6             1.1166     2.0113     0.0057 C.ar    
   7 C7             3.6404     2.0715    -0.0228 C.3     
   8 O8             4.7208     1.1417     0.0796 O.3     
   9 C9             5.9770     1.6552     0.0856 C.ar    
  10 C10            7.0747     0.8056     0.1828 C.ar    
  11 C11            8.3449     1.3262     0.1883 C.ar    
  12 C12            8.5440     2.7078     0.0966 C.ar    
  13 C13            7.4380     3.5566    -0.0013 C.ar    
  14 C14            6.1661     3.0286    -0.0113 C.ar    
  15 C15            9.7159     0.7036     0.2785 C.3     
  16 N16           10.6740     1.8140     0.2316 N.am    
  17 C17            9.9936     2.9683     0.1266 C.2     
  18 O18           10.5023     4.0709     0.0647 O.2     
  19 C19            7.6372     5.0471    -0.1002 C.3     
  20 N20            1.0924     3.3964     0.0159 N.3     
  21 C21            0.5160     3.8985    -1.1625 C.3     
  22 C22            0.6583     5.4333    -1.2511 C.3     
  23 C23           -0.3299     6.0760    -0.3118 C.3     
  24 O24            0.2200     6.3190     0.9992 O.3     
  25 C25            1.0465     5.2738     1.5432 C.3     
  26 C26            0.4814     3.9055     1.2593 C.3     
  27 O27           -1.1696    -0.6837     0.0111 O.3     
  28 C28           -1.0943    -2.1107    -0.0010 C.3     
  29 C29           12.6884     1.5380    -1.1277 C.3     
  30 C30           12.1322     1.6855     0.2900 C.3     
  31 H31            3.2285    -0.6196    -0.0385 H       
  32 H32            3.7315     2.6334    -0.9523 H       
  33 H33            3.6717     2.7593     0.8222 H       
  34 H34            6.9276    -0.2620     0.2543 H       
  35 H35            5.3119     3.6851    -0.0873 H       
  36 H36            9.8191     0.1591     1.2171 H       
  37 H37            9.8788     0.0322    -0.5646 H       
  38 H38            7.7201     5.3338    -1.1486 H       
  39 H39            6.7860     5.5581     0.3499 H       
  40 H40            8.5494     5.3275     0.4264 H       
  41 H41            1.0094     3.4447    -2.0220 H       
  42 H42           -0.5420     3.6370    -1.1812 H       
  43 H43            1.6705     5.7223    -0.9685 H       
  44 H44            0.4565     5.7596    -2.2713 H       
  45 H45           -0.6539     7.0253    -0.7385 H       
  46 H46           -1.1972     5.4232    -0.2136 H       
  47 H47            2.0421     5.3444     1.1052 H       
  48 H48            1.1247     5.4085     2.6220 H       
  49 H49           -0.5993     3.9741     1.1351 H       
  50 H50            0.7164     3.2336     2.0848 H       
  51 H51           -2.1013    -2.5277     0.0075 H       
  52 H52           -0.5724    -2.4393    -0.8997 H       
  53 H53           -0.5517    -2.4533     0.8801 H       
  54 H54           13.7733     1.4424    -1.0842 H       
  55 H55           12.2637     0.6490    -1.5940 H       
  56 H56           12.4244     2.4176    -1.7149 H       
  57 H57           12.5569     2.5745     0.7562 H       
  58 H58           12.3962     0.8060     0.8772 H       
@<TRIPOS>BOND
   1    1    2 ar
   2    1    6 ar
   3    2    3 ar
   4    2   27 1
   5    3    4 ar
   6    4    5 ar
   7    4   31 1
   8    5    6 ar
   9    5    7 1
  10    6   20 1
  11    7    8 1
  12    7   32 1
  13    7   33 1
  14    8    9 1
  15    9   10 ar
  16    9   14 ar
  17   10   11 ar
  18   10   34 1
  19   11   12 ar
  20   11   15 1
  21   12   13 ar
  22   12   17 1
  23   13   14 ar
  24   13   19 1
  25   14   35 1
  26   15   16 1
  27   15   36 1
  28   15   37 1
  29   16   17 am
  30   16   30 1
  31   17   18 2
  32   19   38 1
  33   19   39 1
  34   19   40 1
  35   20   21 1
  36   20   26 1
  37   21   22 1
  38   21   41 1
  39   21   42 1
  40   22   23 1
  41   22   43 1
  42   22   44 1
  43   23   24 1
  44   23   45 1
  45   23   46 1
  46   24   25 1
  47   25   26 1
  48   25   47 1
  49   25   48 1
  50   26   49 1
  51   26   50 1
  52   27   28 1
  53   28   51 1
  54   28   52 1
  55   28   53 1
  56   29   30 1
  57   29   54 1
  58   29   55 1
  59   29   56 1
  60   30   57 1
  61   30   58 1

#	End of record

