#	Name: ASD01940080
#	Creating user name:	WinNT
#	Creation time:	15. 06. 2019 20:11

#	Modifying user name:	WinNT
#	Modification time:	15. 06. 2019 20:11

#	Program:	/corina/corina34_cracker 3.40 0067  02.08.2006

@<TRIPOS>MOLECULE
ASD01940080
  32   33    0    0    0
SMALL
NO_CHARGES


@<TRIPOS>ATOM
   1 I1             2.7923    -4.5931    -1.6199 I       
   2 F2             1.9041     1.5932     2.2865 F       
   3 C3             1.0656     2.1478     1.3840 C.ar    
   4 C4             1.3896     2.1334     0.0338 C.ar    
   5 C5             0.5210     2.7065    -0.8936 C.ar    
   6 C6            -0.6624     3.2882    -0.4640 C.ar    
   7 C7            -0.9796     3.3001     0.8818 C.ar    
   8 C8            -0.1213     2.7265     1.8043 C.ar    
   9 N9             2.5870     1.5446    -0.3953 N.pl3   
  10 N10            0.8431     2.6952    -2.2573 N.am    
  11 C11            2.6335     0.1739    -0.6687 C.ar    
  12 C12            1.4784    -0.5915    -0.5861 C.ar    
  13 C13            1.5271    -1.9456    -0.8573 C.ar    
  14 C14            2.7249    -2.5396    -1.2106 C.ar    
  15 C15            3.8793    -1.7809    -1.2939 C.ar    
  16 C16            3.8366    -0.4247    -1.0299 C.ar    
  17 F17            4.9634     0.3162    -1.1112 F       
  18 F18           -0.4390     2.7355     3.1174 F       
  19 S19            0.4268     3.9789    -3.2171 S.o2    
  20 O20            0.9913     3.6673    -4.4834 O.2     
  21 O21           -0.9794     4.0989    -3.0513 O.2     
  22 C22            1.2789     5.3963    -2.4718 C.3     
  23 Cl23           0.9142     6.8845    -3.4222 Cl      
  24 H24           -1.3365     3.7327    -1.1812 H       
  25 H25           -1.9016     3.7541     1.2138 H       
  26 H26            3.3835     2.0878    -0.5025 H       
  27 H27            1.3099     1.9354    -2.6392 H       
  28 H28            0.5423    -0.1292    -0.3097 H       
  29 H29            0.6284    -2.5410    -0.7930 H       
  30 H30            4.8132    -2.2478    -1.5696 H       
  31 H31            0.9362     5.5276    -1.4454 H       
  32 H32            2.3540     5.2171    -2.4757 H       
@<TRIPOS>BOND
   1    1   14 1
   2    2    3 1
   3    3    4 ar
   4    3    8 ar
   5    4    5 ar
   6    4    9 1
   7    5    6 ar
   8    5   10 1
   9    6    7 ar
  10    6   24 1
  11    7    8 ar
  12    7   25 1
  13    8   18 1
  14    9   11 1
  15    9   26 1
  16   10   19 am
  17   10   27 1
  18   11   12 ar
  19   11   16 ar
  20   12   13 ar
  21   12   28 1
  22   13   14 ar
  23   13   29 1
  24   14   15 ar
  25   15   16 ar
  26   15   30 1
  27   16   17 1
  28   19   20 2
  29   19   21 2
  30   19   22 1
  31   22   23 1
  32   22   31 1
  33   22   32 1

#	End of record

