#	Name: ASD02440017
#	Creating user name:	WinNT
#	Creation time:	15. 06. 2019 20:21

#	Modifying user name:	WinNT
#	Modification time:	15. 06. 2019 20:21

#	Program:	/corina/corina34_cracker 3.40 0067  02.08.2006

@<TRIPOS>MOLECULE
ASD02440017
  93   98    0    0    0
SMALL
NO_CHARGES


@<TRIPOS>ATOM
   1 C1             1.5070     2.8968     0.3425 C.3     
   2 C2             0.6975     1.7197    -0.1920 C.3     
   3 C3             0.7008     0.5472     0.7954 C.3     
   4 C4             2.1097     0.2037     1.2272 C.3     
   5 C5             2.9593     1.3746     1.7062 C.3     
   6 C6             2.9443     2.4609     0.6134 C.3     
   7 C7             2.1654    -0.9230     2.2563 C.3     
   8 C8             3.6064    -1.4634     2.2475 C.3     
   9 C9             4.5861    -0.3748     2.6760 C.3     
  10 C10            4.4062     0.9009     1.8630 C.3     
  11 C11            6.0281    -0.8659     2.5342 C.3     
  12 C12            7.0206     0.2661     2.5727 C.2     
  13 C13            6.6962     1.5231     2.5415 C.2     
  14 C14            5.2738     2.0108     2.4589 C.3     
  15 C15            6.3650    -1.9341     3.5663 C.3     
  16 C16            7.8503    -2.3038     3.5385 C.3     
  17 C17            8.7142    -1.0628     3.7748 C.3     
  18 C18            8.4943    -0.1024     2.6053 C.3     
  19 C19           10.1878    -1.4621     3.8386 C.3     
  20 C20           11.0724    -0.2266     3.9813 C.3     
  21 C21           10.8404     0.7581     2.8376 C.3     
  22 C22            9.3611     1.1387     2.7506 C.3     
  23 C23           11.6578     2.0297     3.1116 C.3     
  24 C24           11.3104     0.1524     1.5157 C.3     
  25 C25            8.3140    -0.4149     5.0727 C.2     
  26 O26            7.9074     0.7229     5.0798 O.2     
  27 O27            8.4087    -1.1009     6.2225 O.3     
  28 C28            6.1843    -1.5118     1.1479 C.3     
  29 C29            4.3483    -0.0842     4.1680 C.3     
  30 C30            2.4369     2.0015     2.9926 C.3     
  31 C31           -0.2440     0.8278     1.9581 C.3     
  32 C32            0.1256    -0.6653     0.0214 C.3     
  33 O33           -0.6752     2.1421    -0.4199 O.3     
  34 C34           -0.9691     2.6348    -1.6388 C.2     
  35 O35           -0.1040     2.7100    -2.4882 O.2     
  36 C36           -2.3434     3.0835    -1.9424 C.ar    
  37 C37           -2.6515     3.5947    -3.2047 C.ar    
  38 C38           -3.9368     4.0120    -3.4815 C.ar    
  39 C39           -4.9198     3.9249    -2.5115 C.ar    
  40 C40           -4.6214     3.4194    -1.2586 C.ar    
  41 C41           -3.3415     2.9932    -0.9702 C.ar    
  42 H42            1.5233     3.6856    -0.4245 H       
  43 H43            1.0440     3.3107     1.2307 H       
  44 H44            1.1258     1.3849    -1.1400 H       
  45 H45            2.6279    -0.1930     0.3171 H       
  46 H46            3.3839     2.0514    -0.2947 H       
  47 H47            3.5293     3.3135     0.9540 H       
  48 H48            1.8964    -0.5830     3.2459 H       
  49 H49            1.5010    -1.7399     1.9662 H       
  50 H50            3.6667    -2.3075     2.9347 H       
  51 H51            3.7943    -1.8089     1.2319 H       
  52 H52            4.7832     0.7084     0.8375 H       
  53 H53            7.4752     2.2704     2.5742 H       
  54 H54            5.2514     2.8794     1.7903 H       
  55 H55            4.9458     2.3205     3.4421 H       
  56 H56            6.0977    -1.6616     4.5794 H       
  57 H57            5.7918    -2.8440     3.3160 H       
  58 H58            8.0516    -3.0271     4.3353 H       
  59 H59            8.1126    -2.7539     2.5845 H       
  60 H60            8.7449    -0.6161     1.6701 H       
  61 H61           10.3377    -2.1111     4.7097 H       
  62 H62           10.4553    -2.0228     2.9441 H       
  63 H63           10.8881     0.2684     4.9341 H       
  64 H64           12.1237    -0.5405     3.9646 H       
  65 H65            9.2203     1.7773     1.8679 H       
  66 H66            9.0765     1.7115     3.6313 H       
  67 H67           12.7159     1.7753     3.1730 H       
  68 H68           11.5020     2.7431     2.3024 H       
  69 H69           11.3354     2.4729     4.0538 H       
  70 H70           10.7530    -0.7629     1.3168 H       
  71 H71           11.1394     0.8647     0.7085 H       
  72 H72           12.3742    -0.0765     1.5789 H       
  73 H73            8.1400    -0.6427     7.0306 H       
  74 H74            5.9632    -0.7741     0.3764 H       
  75 H75            7.2069    -1.8690     1.0266 H       
  76 H76            5.4935    -2.3500     1.0577 H       
  77 H77            4.5875    -0.9719     4.7536 H       
  78 H78            4.9857     0.7418     4.4834 H       
  79 H79            3.3032     0.1832     4.3240 H       
  80 H80            2.2054     1.2158     3.7118 H       
  81 H81            3.1966     2.6629     3.4091 H       
  82 H82            1.5349     2.5743     2.7775 H       
  83 H83           -1.2712     0.8513     1.5940 H       
  84 H84           -0.1418     0.0425     2.7070 H       
  85 H85            0.0053     1.7904     2.4046 H       
  86 H86            0.7553    -0.8767    -0.8428 H       
  87 H87            0.1026    -1.5365     0.6761 H       
  88 H88           -0.8860    -0.4358    -0.3136 H       
  89 H89           -1.8851     3.6635    -3.9626 H       
  90 H90           -4.1764     4.4079    -4.4573 H       
  91 H91           -5.9244     4.2534    -2.7334 H       
  92 H92           -5.3933     3.3545    -0.5059 H       
  93 H93           -3.1100     2.5988     0.0082 H       
@<TRIPOS>BOND
   1    1    2 1
   2    1    6 1
   3    1   42 1
   4    1   43 1
   5    2    3 1
   6    2   33 1
   7    2   44 1
   8    3    4 1
   9    3   31 1
  10    3   32 1
  11    4    5 1
  12    4    7 1
  13    4   45 1
  14    5    6 1
  15    5   30 1
  16    5   10 1
  17    6   46 1
  18    6   47 1
  19    7    8 1
  20    7   48 1
  21    7   49 1
  22    8    9 1
  23    8   50 1
  24    8   51 1
  25    9   10 1
  26    9   11 1
  27    9   29 1
  28   10   14 1
  29   10   52 1
  30   11   12 1
  31   11   15 1
  32   11   28 1
  33   12   13 2
  34   12   18 1
  35   13   14 1
  36   13   53 1
  37   14   54 1
  38   14   55 1
  39   15   16 1
  40   15   56 1
  41   15   57 1
  42   16   17 1
  43   16   58 1
  44   16   59 1
  45   17   18 1
  46   17   19 1
  47   17   25 1
  48   18   22 1
  49   18   60 1
  50   19   20 1
  51   19   61 1
  52   19   62 1
  53   20   21 1
  54   20   63 1
  55   20   64 1
  56   21   22 1
  57   21   23 1
  58   21   24 1
  59   22   65 1
  60   22   66 1
  61   23   67 1
  62   23   68 1
  63   23   69 1
  64   24   70 1
  65   24   71 1
  66   24   72 1
  67   25   26 2
  68   25   27 1
  69   27   73 1
  70   28   74 1
  71   28   75 1
  72   28   76 1
  73   29   77 1
  74   29   78 1
  75   29   79 1
  76   30   80 1
  77   30   81 1
  78   30   82 1
  79   31   83 1
  80   31   84 1
  81   31   85 1
  82   32   86 1
  83   32   87 1
  84   32   88 1
  85   33   34 1
  86   34   35 2
  87   34   36 1
  88   36   37 ar
  89   36   41 ar
  90   37   38 ar
  91   37   89 1
  92   38   39 ar
  93   38   90 1
  94   39   40 ar
  95   39   91 1
  96   40   41 ar
  97   40   92 1
  98   41   93 1

#	End of record

