#	Name: ASD01910087
#	Creating user name:	WinNT
#	Creation time:	15. 06. 2019 19:55

#	Modifying user name:	WinNT
#	Modification time:	15. 06. 2019 19:55

#	Program:	/corina/corina34_cracker 3.40 0067  02.08.2006

@<TRIPOS>MOLECULE
ASD01910087
  24   25    0    0    0
SMALL
NO_CHARGES


@<TRIPOS>ATOM
   1 C1            -0.0158     1.3145     0.0093 C.ar    
   2 N2             0.0021    -0.0041     0.0020 N.ar    
   3 C3             1.1438    -0.6689    -0.0124 C.ar    
   4 C4             2.3464     0.0507    -0.0200 C.ar    
   5 C5             2.2776     1.4505    -0.0119 C.ar    
   6 N6             1.0910     2.0313     0.0026 N.ar    
   7 C7             3.6090    -0.6248    -0.0352 C.1     
   8 C8             4.6441    -1.1785    -0.0477 C.1     
   9 C9             5.9067    -1.8540    -0.0629 C.ar    
  10 C10            7.0958    -1.1148    -0.0702 C.ar    
  11 C11            8.2992    -1.7580    -0.0852 C.ar    
  12 C12            8.3448    -3.1584    -0.0927 C.ar    
  13 C13            7.1546    -3.8976    -0.0848 C.ar    
  14 C14            5.9517    -3.2534    -0.0646 C.ar    
  15 C15            9.6397    -3.8511    -0.1092 C.2     
  16 O16            9.6789    -5.0635    -0.1157 O.2     
  17 H17           -0.9681     1.8239     0.0165 H       
  18 H18            1.1502    -1.7488    -0.0179 H       
  19 H19            3.1796     2.0445    -0.0173 H       
  20 H20            7.0605    -0.0354    -0.0645 H       
  21 H21            9.2164    -1.1877    -0.0916 H       
  22 H22            7.1891    -4.9770    -0.0906 H       
  23 H23            5.0342    -3.8231    -0.0585 H       
  24 H24           10.5570    -3.2811    -0.1156 H       
@<TRIPOS>BOND
   1    1    2 ar
   2    1    6 ar
   3    1   17 1
   4    2    3 ar
   5    3    4 ar
   6    3   18 1
   7    4    5 ar
   8    4    7 1
   9    5    6 ar
  10    5   19 1
  11    7    8 3
  12    8    9 1
  13    9   10 ar
  14    9   14 ar
  15   10   11 ar
  16   10   20 1
  17   11   12 ar
  18   11   21 1
  19   12   13 ar
  20   12   15 1
  21   13   14 ar
  22   13   22 1
  23   14   23 1
  24   15   16 2
  25   15   24 1

#	End of record

