#	Name: ASD01100071
#	Creating user name:	WinNT
#	Creation time:	15. 06. 2019 18:58

#	Modifying user name:	WinNT
#	Modification time:	15. 06. 2019 18:58

#	Program:	/corina/corina34_cracker 3.40 0067  02.08.2006

@<TRIPOS>MOLECULE
ASD01100071
  32   34    0    0    0
SMALL
NO_CHARGES


@<TRIPOS>ATOM
   1 C1            -0.0167     1.3793     0.0096 C.ar    
   2 C2             0.0021    -0.0041     0.0020 C.ar    
   3 C3             1.2098    -0.6789    -0.0131 C.ar    
   4 C4             2.3967     0.0292    -0.0207 C.ar    
   5 C5             2.3773     1.4115    -0.0131 C.ar    
   6 C6             1.1709     2.0863     0.0021 C.ar    
   7 C7             3.6719     2.1830    -0.0208 C.3     
   8 Cl8           -1.4892    -0.8928     0.0121 Cl      
   9 C9             3.7284     3.0570    -1.2471 C.2     
  10 N10            4.8017     3.8423    -1.4660 N.am    
  11 O11            2.8081     3.0537    -2.0371 O.2     
  12 C12            4.8540     4.6490    -2.5980 C.2     
  13 N13            5.8315     5.4427    -2.9118 N.2     
  14 C14            5.7070     6.1342    -4.0292 C.2     
  15 C15            4.5779     5.9336    -4.7123 C.2     
  16 S16            3.6070     4.7506    -3.8382 S.3     
  17 C17            3.7522     3.0569     1.2325 C.3     
  18 C18            3.7101     2.3515     2.5895 C.3     
  19 C19            5.0203     2.9577     2.0828 C.3     
  20 F20            4.2397     6.5309    -5.8760 F       
  21 H21           -0.9592     1.9066     0.0170 H       
  22 H22            1.2250    -1.7588    -0.0187 H       
  23 H23            3.3395    -0.4974    -0.0321 H       
  24 H24            1.1564     3.1662     0.0080 H       
  25 H25            4.5100     1.4862    -0.0322 H       
  26 H26            5.5377     3.8448    -0.8342 H       
  27 H27            6.4699     6.8190    -4.3689 H       
  28 H28            3.2714     4.0322     1.1571 H       
  29 H29            3.2019     2.8629     3.4070 H       
  30 H30            3.6251     1.2648     2.5894 H       
  31 H31            5.7973     2.2698     1.7494 H       
  32 H32            5.3741     3.8679     2.5670 H       
@<TRIPOS>BOND
   1    1    2 ar
   2    1    6 ar
   3    1   21 1
   4    2    3 ar
   5    2    8 1
   6    3    4 ar
   7    3   22 1
   8    4    5 ar
   9    4   23 1
  10    5    6 ar
  11    5    7 1
  12    6   24 1
  13    7    9 1
  14    7   17 1
  15    7   25 1
  16    9   10 am
  17    9   11 2
  18   10   12 1
  19   10   26 1
  20   12   13 2
  21   12   16 1
  22   13   14 1
  23   14   15 2
  24   14   27 1
  25   15   16 1
  26   15   20 1
  27   17   18 1
  28   17   19 1
  29   17   28 1
  30   18   19 1
  31   18   29 1
  32   18   30 1
  33   19   31 1
  34   19   32 1

#	End of record

