#	Name: ASD04880320
#	Creating user name:	WinNT
#	Creation time:	15. 06. 2019 20:53

#	Modifying user name:	WinNT
#	Modification time:	15. 06. 2019 20:53

#	Program:	/corina/corina34_cracker 3.40 0067  02.08.2006

@<TRIPOS>MOLECULE
ASD04880320
  52   55    0    0    0
SMALL
NO_CHARGES


@<TRIPOS>ATOM
   1 C1             0.0124     1.3431    -0.5274 C.ar    
   2 C2             0.0057    -0.0479    -0.6016 C.ar    
   3 C3            -1.1729    -0.7448    -0.4113 C.ar    
   4 C4            -2.3556    -0.0507    -0.1442 C.ar    
   5 C5            -2.3413     1.3444    -0.0708 C.ar    
   6 C6            -1.1608     2.0324    -0.2570 C.ar    
   7 C7            -3.6158    -0.7886     0.0591 C.2     
   8 O8             1.1724     2.0266    -0.7149 O.3     
   9 C9             1.1078     3.4513    -0.6251 C.3     
  10 O10            1.1588    -0.7205    -0.8617 O.3     
  11 C11            1.0787    -2.1459    -0.9235 C.3     
  12 N12           -3.7426    -2.0696     0.0138 N.2     
  13 N13           -5.0408    -2.5217     0.2409 N.am    
  14 C14           -5.9149    -1.3610     0.4739 C.3     
  15 C15           -4.9570    -0.1585     0.3595 C.3     
  16 C16           -5.4322    -3.8114     0.2464 C.2     
  17 N17           -4.5331    -4.7894     0.0191 N.am    
  18 O18           -6.5965    -4.0927     0.4565 O.2     
  19 C19           -4.9183    -6.1327     0.1210 C.ar    
  20 C20           -6.1907    -6.5220    -0.2753 C.ar    
  21 C21           -4.9102     0.6175     1.6773 C.3     
  22 C22           -5.3811     0.7580    -0.7898 C.3     
  23 C23           -4.0260    -7.0752     0.6129 C.ar    
  24 C24           -4.4044    -8.4008     0.7137 C.ar    
  25 C25           -5.6744    -8.7925     0.3239 C.ar    
  26 C26           -6.5707    -7.8496    -0.1748 C.ar    
  27 O27           -6.2832   -10.0154     0.3229 O.3     
  28 C28           -7.6924    -9.7431     0.2088 C.3     
  29 O29           -7.7409    -8.4808    -0.4842 O.3     
  30 H30           -1.1795    -1.8232    -0.4693 H       
  31 H31           -3.2540     1.8837     0.1354 H       
  32 H32           -1.1510     3.1108    -0.1997 H       
  33 H33            2.0993     3.8714    -0.7942 H       
  34 H34            0.4186     3.8320    -1.3788 H       
  35 H35            0.7563     3.7373     0.3663 H       
  36 H36            2.0656    -2.5563    -1.1372 H       
  37 H37            0.7239    -2.5316     0.0322 H       
  38 H38            0.3854    -2.4369    -1.7127 H       
  39 H39           -6.6940    -1.3087    -0.2866 H       
  40 H40           -6.3530    -1.4047     1.4710 H       
  41 H41           -3.6193    -4.5633    -0.2151 H       
  42 H42           -6.8840    -5.7895    -0.6616 H       
  43 H43           -4.5598    -0.0394     2.4735 H       
  44 H44           -4.2290     1.4625     1.5773 H       
  45 H45           -5.9083     0.9821     1.9199 H       
  46 H46           -6.3907     1.1261    -0.6074 H       
  47 H47           -4.6933     1.6010    -0.8550 H       
  48 H48           -5.3614     0.1998    -1.7258 H       
  49 H49           -3.0348    -6.7725     0.9168 H       
  50 H50           -3.7084    -9.1324     1.0967 H       
  51 H51           -8.1862   -10.5188    -0.3765 H       
  52 H52           -8.1473    -9.6588     1.1958 H       
@<TRIPOS>BOND
   1    1    2 ar
   2    1    8 1
   3    1    6 ar
   4    2    3 ar
   5    2   10 1
   6    3    4 ar
   7    3   30 1
   8    4    5 ar
   9    4    7 1
  10    5    6 ar
  11    5   31 1
  12    6   32 1
  13    7   12 2
  14    7   15 1
  15    8    9 1
  16    9   33 1
  17    9   34 1
  18    9   35 1
  19   10   11 1
  20   11   36 1
  21   11   37 1
  22   11   38 1
  23   12   13 1
  24   13   14 1
  25   13   16 am
  26   14   15 1
  27   14   39 1
  28   14   40 1
  29   15   21 1
  30   15   22 1
  31   16   17 am
  32   16   18 2
  33   17   19 1
  34   17   41 1
  35   19   20 ar
  36   19   23 ar
  37   20   26 ar
  38   20   42 1
  39   21   43 1
  40   21   44 1
  41   21   45 1
  42   22   46 1
  43   22   47 1
  44   22   48 1
  45   23   24 ar
  46   23   49 1
  47   24   25 ar
  48   24   50 1
  49   25   26 ar
  50   25   27 1
  51   26   29 1
  52   27   28 1
  53   28   29 1
  54   28   51 1
  55   28   52 1

#	End of record

