#	Name: ASD00842309
#	Creating user name:	WinNT
#	Creation time:	15. 06. 2019 18:44

#	Modifying user name:	WinNT
#	Modification time:	15. 06. 2019 18:44

#	Program:	/corina/corina34_cracker 3.40 0067  02.08.2006

@<TRIPOS>MOLECULE
ASD00842309
  99  104    0    0    0
SMALL
NO_CHARGES


@<TRIPOS>ATOM
   1 F1             6.0981    -1.6529    -1.9705 F       
   2 C2             1.0068     1.5590    -0.3815 C.ar    
   3 C3             1.3136     0.2289    -0.6284 C.ar    
   4 C4             1.2445    -0.6991     0.4008 C.ar    
   5 C5             0.8705    -0.2967     1.6681 C.ar    
   6 C6             0.5647     1.0298     1.9115 C.ar    
   7 C7             0.6333     1.9565     0.8879 C.ar    
   8 C8             1.5766    -2.1450     0.1360 C.3     
   9 C9             1.3079    -2.9848     1.3666 C.2     
  10 C10            0.7730    -2.6685    -1.0561 C.3     
  11 C11           -0.6961    -2.4381    -0.8117 C.2     
  12 N12           -1.6067    -2.9089    -1.6866 N.am    
  13 O13           -1.0589    -1.8291     0.1724 O.2     
  14 C14           -3.0331    -2.5965    -1.5233 C.3     
  15 C15           -3.8275    -3.9063    -1.5199 C.3     
  16 C16           -3.4990    -4.7007    -2.7860 C.3     
  17 C17           -2.0070    -5.0408    -2.8043 C.3     
  18 C18           -1.1913    -3.7391    -2.8254 C.3     
  19 C19           -4.3168    -5.9938    -2.8030 C.3     
  20 C20           -5.8100    -5.6551    -2.7865 C.3     
  21 C21           -6.6225    -6.9496    -2.8650 C.3     
  22 N22           -6.2793    -7.6704    -4.0975 N.3     
  23 C23           -4.8603    -8.0477    -4.1144 C.3     
  24 C24           -3.9951    -6.7860    -4.0732 C.3     
  25 C25           -7.1393    -8.8480    -4.2754 C.3     
  26 O26            0.2367    -3.1378     1.9145 O.2     
  27 N27            2.4789    -3.5293     1.7376 N.am    
  28 C28            3.0591    -2.3119    -0.1068 C.ar    
  29 C29            3.5267    -3.1544     0.8939 C.ar    
  30 C30            3.9127    -1.8093    -1.0631 C.ar    
  31 C31            5.2571    -2.1434    -1.0339 C.ar    
  32 C32            5.7360    -2.9836    -0.0400 C.ar    
  33 C33            4.8790    -3.4877     0.9194 C.ar    
  34 F34            7.0464    -3.3107    -0.0097 F       
  35 C35            2.4058    -6.1786     2.4792 C.ar    
  36 C36            1.1616    -6.5641     2.0011 C.ar    
  37 C37            3.4482    -7.0856     2.5065 C.ar    
  38 C38            3.2545    -8.3778     2.0577 C.ar    
  39 C39            2.0117    -8.7682     1.5786 C.ar    
  40 C40            0.9646    -7.8605     1.5506 C.ar    
  41 O41            1.8217   -10.0396     1.1377 O.3     
  42 O42            0.1369    -5.6719     1.9749 O.3     
  43 C43           -1.1161    -6.1377     1.4699 C.3     
  44 C44            2.9448   -10.9212     1.1961 C.3     
  45 C45           -6.8378    -9.5003    -5.6262 C.3     
  46 C46           -6.8685    -9.8516    -3.1527 C.3     
  47 S47            2.6590    -4.5293     3.0452 S.o2    
  48 O48            4.0237    -4.4428     3.4316 O.2     
  49 O49            1.5821    -4.2373     3.9251 O.2     
  50 O50            1.6808    -0.1646    -1.8762 O.3     
  51 C51            2.1636     0.2250    -4.2120 C.3     
  52 C52            1.6215     0.8196    -2.9106 C.3     
  53 H53            1.0642     2.2840    -1.1799 H       
  54 H54            0.8166    -1.0186     2.4695 H       
  55 H55            0.2719     1.3424     2.9029 H       
  56 H56            0.3940     2.9919     1.0805 H       
  57 H57            1.0781    -2.1409    -1.9598 H       
  58 H58            0.9580    -3.7357    -1.1784 H       
  59 H59           -3.1868    -2.0734    -0.5794 H       
  60 H60           -3.3667    -1.9689    -2.3497 H       
  61 H61           -3.5576    -4.4932    -0.6419 H       
  62 H62           -4.8944    -3.6846    -1.4960 H       
  63 H63           -3.7461    -4.1035    -3.6638 H       
  64 H64           -1.7543    -5.6170    -1.9142 H       
  65 H65           -1.7782    -5.6266    -3.6946 H       
  66 H66           -1.3759    -3.2074    -3.7588 H       
  67 H67           -0.1299    -3.9716    -2.7386 H       
  68 H68           -4.0694    -6.5927    -1.9265 H       
  69 H69           -6.0534    -5.1280    -1.8640 H       
  70 H70           -6.0492    -5.0229    -3.6415 H       
  71 H71           -6.3931    -7.5753    -2.0024 H       
  72 H72           -7.6861    -6.7112    -2.8679 H       
  73 H73           -4.6391    -8.6683    -3.2460 H       
  74 H74           -4.6439    -8.6068    -5.0247 H       
  75 H75           -4.2058    -6.1716    -4.9485 H       
  76 H76           -2.9419    -7.0669    -4.0699 H       
  77 H77           -8.1851    -8.5422    -4.2449 H       
  78 H78            3.5348    -1.1556    -1.8352 H       
  79 H79            5.2584    -4.1412     1.6909 H       
  80 H80            4.4159    -6.7837     2.8790 H       
  81 H81            4.0708    -9.0846     2.0794 H       
  82 H82           -0.0033    -8.1626     1.1784 H       
  83 H83           -1.4674    -6.9694     2.0806 H       
  84 H84           -1.8453    -5.3282     1.5043 H       
  85 H85           -0.9914    -6.4708     0.4396 H       
  86 H86            2.6575   -11.9013     0.8153 H       
  87 H87            3.7549   -10.5184     0.5881 H       
  88 H88            3.2786   -11.0164     2.2293 H       
  89 H89           -7.4759   -10.3741    -5.7582 H       
  90 H90           -7.0308    -8.7853    -6.4260 H       
  91 H91           -5.7921    -9.8061    -5.6567 H       
  92 H92           -7.0833    -9.3870    -2.1904 H       
  93 H93           -7.5066   -10.7254    -3.2848 H       
  94 H94           -5.8228   -10.1575    -3.1832 H       
  95 H95            3.1668    -0.1661    -4.0426 H       
  96 H96            1.5100    -0.5823    -4.5425 H       
  97 H97            2.2001     0.9996    -4.9779 H       
  98 H98            0.5873     1.1313    -3.0566 H       
  99 H99            2.2244     1.6821    -2.6264 H       
@<TRIPOS>BOND
   1    1   31 1
   2    2    3 ar
   3    2    7 ar
   4    2   53 1
   5    3    4 ar
   6    3   50 1
   7    4    5 ar
   8    4    8 1
   9    5    6 ar
  10    5   54 1
  11    6    7 ar
  12    6   55 1
  13    7   56 1
  14    8    9 1
  15    8   10 1
  16    8   28 1
  17    9   26 2
  18    9   27 am
  19   10   11 1
  20   10   57 1
  21   10   58 1
  22   11   12 am
  23   11   13 2
  24   12   14 1
  25   12   18 1
  26   14   15 1
  27   14   59 1
  28   14   60 1
  29   15   16 1
  30   15   61 1
  31   15   62 1
  32   16   17 1
  33   16   19 1
  34   16   63 1
  35   17   18 1
  36   17   64 1
  37   17   65 1
  38   18   66 1
  39   18   67 1
  40   19   20 1
  41   19   24 1
  42   19   68 1
  43   20   21 1
  44   20   69 1
  45   20   70 1
  46   21   22 1
  47   21   71 1
  48   21   72 1
  49   22   23 1
  50   22   25 1
  51   23   24 1
  52   23   73 1
  53   23   74 1
  54   24   75 1
  55   24   76 1
  56   25   45 1
  57   25   46 1
  58   25   77 1
  59   27   47 am
  60   27   29 1
  61   28   29 ar
  62   28   30 ar
  63   29   33 ar
  64   30   31 ar
  65   30   78 1
  66   31   32 ar
  67   32   33 ar
  68   32   34 1
  69   33   79 1
  70   35   36 ar
  71   35   37 ar
  72   35   47 1
  73   36   42 1
  74   36   40 ar
  75   37   38 ar
  76   37   80 1
  77   38   39 ar
  78   38   81 1
  79   39   40 ar
  80   39   41 1
  81   40   82 1
  82   41   44 1
  83   42   43 1
  84   43   83 1
  85   43   84 1
  86   43   85 1
  87   44   86 1
  88   44   87 1
  89   44   88 1
  90   45   89 1
  91   45   90 1
  92   45   91 1
  93   46   92 1
  94   46   93 1
  95   46   94 1
  96   47   48 2
  97   47   49 2
  98   50   52 1
  99   51   52 1
 100   51   95 1
 101   51   96 1
 102   51   97 1
 103   52   98 1
 104   52   99 1

#	End of record

