#	Name: ASD01230123
#	Creating user name:	WinNT
#	Creation time:	15. 06. 2019 19:11

#	Modifying user name:	WinNT
#	Modification time:	15. 06. 2019 19:11

#	Program:	/corina/corina34_cracker 3.40 0067  02.08.2006

@<TRIPOS>MOLECULE
ASD01230123
  57   60    0    0    0
SMALL
NO_CHARGES


@<TRIPOS>ATOM
   1 P1             0.0054     1.8167    -4.7274 P.3     
   2 O2            -0.9444     1.0410    -5.5559 O.2     
   3 O3             0.9398     0.8052    -3.8931 O.3     
   4 O4             0.9240     2.7335    -5.6802 O.3     
   5 N5            -0.8513     2.7976    -3.6614 N.3     
   6 O6            -3.5608     2.8442    -1.7018 O.3     
   7 C7            -3.1101     2.3157    -2.8485 C.2     
   8 C8            -1.6379     1.9902    -2.7195 C.3     
   9 C9            -1.2775     2.3595    -1.2633 C.3     
  10 C10           -2.6705     2.4827    -0.6047 C.3     
  11 O11           -3.7793     2.1270    -3.8366 O.2     
  12 C12            0.2684    -0.2394    -3.3409 C.ar    
  13 C13           -0.2601    -1.2326    -4.1526 C.ar    
  14 C14           -0.9422    -2.2934    -3.5888 C.ar    
  15 C15           -1.0984    -2.3658    -2.2169 C.ar    
  16 C16           -0.5729    -1.3769    -1.4059 C.ar    
  17 C17            0.1153    -0.3173    -1.9643 C.ar    
  18 C18            0.3865     3.5845    -6.6946 C.3     
  19 O19            2.3387     3.3685    -8.1463 O.3     
  20 C20            1.5283     4.3099    -7.4095 C.3     
  21 C21            0.9675     5.2711    -8.4809 C.3     
  22 C22            1.9794     5.1685    -9.6440 C.3     
  23 C23            3.0319     4.1574    -9.1377 C.3     
  24 C24            1.2937     4.6418   -10.9062 C.3     
  25 O25            0.9171     6.6075    -7.9774 O.3     
  26 F26            2.5699     6.4125    -9.8911 F       
  27 C27            4.5440     3.6886   -10.9823 C.2     
  28 N28            4.9871     2.9252   -11.9984 N.am    
  29 C29            4.3777     1.7575   -12.2869 C.2     
  30 C30            3.2686     1.3424   -11.5111 C.2     
  31 C31            2.8453     2.1275   -10.4974 C.2     
  32 N32            3.4911     3.3055   -10.2375 N.am    
  33 O33            4.7774     1.0664   -13.2066 O.2     
  34 O34            5.1063     4.7369   -10.7309 O.2     
  35 H35           -0.2322     3.4251    -3.1704 H       
  36 H36           -1.4675     0.9279    -2.8947 H       
  37 H37           -0.6951     1.5664    -0.7943 H       
  38 H38           -0.7442     3.3093    -1.2243 H       
  39 H39           -2.6648     3.2648     0.1544 H       
  40 H40           -2.9710     1.5299    -0.1688 H       
  41 H41           -0.1388    -1.1764    -5.2242 H       
  42 H42           -1.3542    -3.0667    -4.2203 H       
  43 H43           -1.6320    -3.1959    -1.7781 H       
  44 H44           -0.6969    -1.4353    -0.3346 H       
  45 H45            0.5298     0.4524    -1.3300 H       
  46 H46           -0.1701     2.9847    -7.4146 H       
  47 H47           -0.2802     4.3166    -6.2390 H       
  48 H48            2.1398     4.8567    -6.6918 H       
  49 H49           -0.0213     4.9466    -8.8051 H       
  50 H50            3.8740     4.6810    -8.6851 H       
  51 H51            0.5076     5.3338   -11.2084 H       
  52 H52            2.0270     4.5526   -11.7077 H       
  53 H53            0.8580     3.6638   -10.7018 H       
  54 H54            0.3422     6.7164    -7.2074 H       
  55 H55            5.7476     3.2163   -12.5255 H       
  56 H56            2.7675     0.4104   -11.7274 H       
  57 H57            2.0009     1.8272    -9.8947 H       
@<TRIPOS>BOND
   1    1    2 2
   2    1    3 1
   3    1    4 1
   4    1    5 1
   5    3   12 1
   6    4   18 1
   7    5    8 1
   8    5   35 1
   9    6    7 1
  10    6   10 1
  11    7    8 1
  12    7   11 2
  13    8    9 1
  14    8   36 1
  15    9   10 1
  16    9   37 1
  17    9   38 1
  18   10   39 1
  19   10   40 1
  20   12   13 ar
  21   12   17 ar
  22   13   14 ar
  23   13   41 1
  24   14   15 ar
  25   14   42 1
  26   15   16 ar
  27   15   43 1
  28   16   17 ar
  29   16   44 1
  30   17   45 1
  31   18   20 1
  32   18   46 1
  33   18   47 1
  34   19   20 1
  35   19   23 1
  36   20   21 1
  37   20   48 1
  38   21   22 1
  39   21   25 1
  40   21   49 1
  41   22   24 1
  42   22   26 1
  43   22   23 1
  44   23   32 1
  45   23   50 1
  46   24   51 1
  47   24   52 1
  48   24   53 1
  49   25   54 1
  50   27   28 am
  51   27   32 am
  52   27   34 2
  53   28   29 am
  54   28   55 1
  55   29   30 1
  56   29   33 2
  57   30   31 2
  58   30   56 1
  59   31   32 1
  60   31   57 1

#	End of record

