#	Name: ASD03740040
#	Creating user name:	WinNT
#	Creation time:	15. 06. 2019 20:46

#	Modifying user name:	WinNT
#	Modification time:	15. 06. 2019 20:46

#	Program:	/corina/corina34_cracker 3.40 0067  02.08.2006

@<TRIPOS>MOLECULE
ASD03740040
  47   48    0    0    0
SMALL
NO_CHARGES


@<TRIPOS>ATOM
   1 C1             0.3464     0.5167     0.5040 C.3     
   2 N2             0.3172    -0.8735     0.0303 N.3     
   3 C3             1.7051     0.8228     1.0797 C.ar    
   4 C4             2.1981     2.1149     1.0386 C.ar    
   5 C5             3.4502     2.3957     1.5698 C.ar    
   6 C6             4.2028     1.3787     2.1404 C.ar    
   7 C7             3.7045     0.0895     2.1784 C.ar    
   8 C8             2.4555    -0.1866     1.6535 C.ar    
   9 O9             3.9379     3.6643     1.5307 O.3     
  10 C10            3.6639     4.4856     2.5779 C.ar    
  11 C11            4.1404     5.7888     2.5822 C.ar    
  12 C12            3.8604     6.6218     3.6481 C.ar    
  13 C13            3.1060     6.1579     4.7100 C.ar    
  14 C14            2.6304     4.8596     4.7084 C.ar    
  15 C15            2.9022     4.0244     3.6422 C.ar    
  16 Cl16           5.7686     1.7248     2.8052 Cl      
  17 F17            1.4626     3.1021     0.4819 F       
  18 C18           -0.7203     0.7101     1.5837 C.3     
  19 C19           -2.1092     0.5436     0.9640 C.3     
  20 C20            0.3388    -0.9301    -1.4374 C.3     
  21 C21            0.7996    -2.3179    -1.8876 C.3     
  22 C22           -1.0662    -0.6587    -1.9790 C.3     
  23 C23            2.2316    -2.5318    -1.4696 C.2     
  24 N24            2.8170    -3.7309    -1.6593 N.am    
  25 O25            2.8572    -1.6250    -0.9625 O.2     
  26 H26            0.1453     1.1890    -0.3300 H       
  27 H27            1.0787    -1.4058     0.4240 H       
  28 H28            4.2901    -0.7021     2.6220 H       
  29 H29            2.0670    -1.1937     1.6882 H       
  30 H30            4.7300     6.1515     1.7532 H       
  31 H31            4.2314     7.6360     3.6521 H       
  32 H32            2.8883     6.8107     5.5423 H       
  33 H33            2.0420     4.4995     5.5394 H       
  34 H34            2.5261     3.0120     3.6390 H       
  35 H35           -0.5813    -0.0330     2.3690 H       
  36 H36           -0.6296     1.7095     2.0091 H       
  37 H37           -2.2136     1.2233     0.1183 H       
  38 H38           -2.2337    -0.4838     0.6220 H       
  39 H39           -2.8699     0.7728     1.7103 H       
  40 H40            1.0275    -0.1768    -1.8200 H       
  41 H41            0.1689    -3.0777    -1.4258 H       
  42 H42            0.7228    -2.3921    -2.9723 H       
  43 H43           -1.7722    -1.3515    -1.5211 H       
  44 H44           -1.3556     0.3650    -1.7415 H       
  45 H45           -1.0716    -0.7962    -3.0603 H       
  46 H46            2.3166    -4.4562    -2.0648 H       
  47 H47            3.7387    -3.8686    -1.3902 H       
@<TRIPOS>BOND
   1    1    2 1
   2    1    3 1
   3    1   18 1
   4    1   26 1
   5    2   20 1
   6    2   27 1
   7    3    4 ar
   8    3    8 ar
   9    4    5 ar
  10    4   17 1
  11    5    6 ar
  12    5    9 1
  13    6    7 ar
  14    6   16 1
  15    7    8 ar
  16    7   28 1
  17    8   29 1
  18    9   10 1
  19   10   11 ar
  20   10   15 ar
  21   11   12 ar
  22   11   30 1
  23   12   13 ar
  24   12   31 1
  25   13   14 ar
  26   13   32 1
  27   14   15 ar
  28   14   33 1
  29   15   34 1
  30   18   19 1
  31   18   35 1
  32   18   36 1
  33   19   37 1
  34   19   38 1
  35   19   39 1
  36   20   21 1
  37   20   22 1
  38   20   40 1
  39   21   23 1
  40   21   41 1
  41   21   42 1
  42   22   43 1
  43   22   44 1
  44   22   45 1
  45   23   24 am
  46   23   25 2
  47   24   46 1
  48   24   47 1

#	End of record

