#	Name: ASD00071085
#	Creating user name:	WinNT
#	Creation time:	15. 06. 2019 18:30

#	Modifying user name:	WinNT
#	Modification time:	15. 06. 2019 18:30

#	Program:	/corina/corina34_cracker 3.40 0067  02.08.2006

@<TRIPOS>MOLECULE
ASD00071085
  36   37    0    0    0
SMALL
NO_CHARGES


@<TRIPOS>ATOM
   1 N1            -0.0178     1.4648     0.0101 N.3     
   2 C2             0.0021    -0.0041     0.0020 C.3     
   3 C3            -1.4117    -0.5257     0.0127 C.ar    
   4 C4            -2.1466    -0.5640    -1.1636 C.ar    
   5 C5            -3.4477    -1.0446    -1.1504 C.ar    
   6 C6            -4.0087    -1.4839     0.0333 C.ar    
   7 C7            -3.2746    -1.4443     1.2041 C.ar    
   8 C8            -1.9751    -0.9713     1.1924 C.ar    
   9 O9            -1.5928    -0.1309    -2.3266 O.3     
  10 C10           -2.4078    -0.1995    -3.4984 C.3     
  11 C11            1.3463     2.0098    -0.0000 C.3     
  12 C12            1.2856     3.5156     0.0087 C.ar    
  13 C13            1.0603     4.1957     1.1990 C.ar    
  14 C14            1.0051     5.5835     1.2025 C.ar    
  15 C15            1.1743     6.2828     0.0235 C.ar    
  16 C16            1.3984     5.6028    -1.1594 C.ar    
  17 C17            1.4596     4.2211    -1.1655 C.ar    
  18 N18            0.8892     3.4854     2.3894 N.pl3   
  19 H19           -0.5563     1.8234    -0.7642 H       
  20 H20            0.5123    -0.3556    -0.8948 H       
  21 H21            0.5293    -0.3651     0.8851 H       
  22 H22           -4.0219    -1.0751    -2.0646 H       
  23 H23           -5.0217    -1.8582     0.0441 H       
  24 H24           -3.7151    -1.7875     2.1285 H       
  25 H25           -1.4020    -0.9459     2.1075 H       
  26 H26           -3.3014     0.4080    -3.3555 H       
  27 H27           -1.8463     0.1758    -4.3540 H       
  28 H28           -2.6973    -1.2346    -3.6795 H       
  29 H29            1.8828     1.6627     0.8830 H       
  30 H30            1.8658     1.6723    -0.8968 H       
  31 H31            0.8297     6.1152     2.1261 H       
  32 H32            1.1312     7.3619     0.0254 H       
  33 H33            1.5304     6.1521    -2.0799 H       
  34 H34            1.6392     3.6932    -2.0904 H       
  35 H35            0.9276     2.5161     2.3857 H       
  36 H36            0.7319     3.9613     3.2199 H       
@<TRIPOS>BOND
   1    1    2 1
   2    1   11 1
   3    1   19 1
   4    2    3 1
   5    2   20 1
   6    2   21 1
   7    3    4 ar
   8    3    8 ar
   9    4    5 ar
  10    4    9 1
  11    5    6 ar
  12    5   22 1
  13    6    7 ar
  14    6   23 1
  15    7    8 ar
  16    7   24 1
  17    8   25 1
  18    9   10 1
  19   10   26 1
  20   10   27 1
  21   10   28 1
  22   11   12 1
  23   11   29 1
  24   11   30 1
  25   12   13 ar
  26   12   17 ar
  27   13   14 ar
  28   13   18 1
  29   14   15 ar
  30   14   31 1
  31   15   16 ar
  32   15   32 1
  33   16   17 ar
  34   16   33 1
  35   17   34 1
  36   18   35 1
  37   18   36 1

#	End of record

