#	Name: ASD03331203
#	Creating user name:	WinNT
#	Creation time:	15. 06. 2019 20:38

#	Modifying user name:	WinNT
#	Modification time:	15. 06. 2019 20:38

#	Program:	/corina/corina34_cracker 3.40 0067  02.08.2006

@<TRIPOS>MOLECULE
ASD03331203
  54   58    0    0    0
SMALL
NO_CHARGES


@<TRIPOS>ATOM
   1 N1            -0.0459     1.4956     0.5698 N.am    
   2 C2             0.0019     0.1506     1.1632 C.3     
   3 C3             0.5966    -0.8151     0.1327 C.3     
   4 N4             1.8894    -0.2950    -0.3322 N.3     
   5 C5             1.7288     0.9911    -1.0237 C.3     
   6 C6             1.1805     2.0309    -0.0406 C.3     
   7 C7            -1.1849     2.2161     0.5803 C.2     
   8 O8            -2.2139     1.7207     0.9974 O.2     
   9 N9            -1.1831     3.4859     0.1284 N.am    
  10 C10           -2.3851     4.1963     0.0330 C.ar    
  11 C11           -2.4015     5.5681     0.2481 C.ar    
  12 C12           -3.5892     6.2664     0.1527 C.ar    
  13 C13           -4.7613     5.6010    -0.1566 C.ar    
  14 C14           -4.7483     4.2350    -0.3714 C.ar    
  15 C15           -3.5629     3.5318    -0.2826 C.ar    
  16 C16            2.5723    -1.2724    -1.1902 C.3     
  17 C17            3.7648    -0.6215    -1.8425 C.ar    
  18 C18            4.9979    -0.6550    -1.2170 C.ar    
  19 C19            6.0938    -0.0612    -1.8084 C.ar    
  20 C20            5.9599     0.5760    -3.0430 C.ar    
  21 C21            4.7144     0.6040    -3.6651 C.ar    
  22 C22            3.6258     0.0039    -3.0692 C.ar    
  23 C23            6.9513     1.2836    -3.8906 C.ar    
  24 C24            6.3257     1.7534    -5.0419 C.ar    
  25 C25            4.8732     1.3508    -4.9668 C.3     
  26 C26            8.3144     1.5233    -3.7061 C.ar    
  27 C27            9.0267     2.2195    -4.6600 C.ar    
  28 C28            8.3960     2.6828    -5.8007 C.ar    
  29 C29            7.0457     2.4489    -5.9903 C.ar    
  30 H30            0.6285     0.1659     2.0549 H       
  31 H31           -1.0063    -0.1697     1.4260 H       
  32 H32            0.7419    -1.7929     0.5920 H       
  33 H33           -0.0837    -0.9080    -0.7138 H       
  34 H34            2.6951     1.3233    -1.4030 H       
  35 H35            1.0326     0.8731    -1.8541 H       
  36 H36            0.9515     2.9537    -0.5736 H       
  37 H37            1.9203     2.2269     0.7355 H       
  38 H38           -0.3488     3.9073    -0.1307 H       
  39 H39           -1.4865     6.0883     0.4900 H       
  40 H40           -3.6027     7.3332     0.3202 H       
  41 H41           -5.6889     6.1492    -0.2303 H       
  42 H42           -5.6653     3.7181    -0.6128 H       
  43 H43           -3.5526     2.4657    -0.4549 H       
  44 H44            2.9044    -2.1167    -0.5862 H       
  45 H45            1.8845    -1.6240    -1.9592 H       
  46 H46            5.1032    -1.1477    -0.2617 H       
  47 H47            7.0547    -0.0891    -1.3162 H       
  48 H48            2.6622     0.0287    -3.5561 H       
  49 H49            4.6198     0.7019    -5.8051 H       
  50 H50            4.2377     2.2363    -4.9713 H       
  51 H51            8.8106     1.1639    -2.8166 H       
  52 H52           10.0810     2.4041    -4.5157 H       
  53 H53            8.9584     3.2281    -6.5442 H       
  54 H54            6.5550     2.8116    -6.8815 H       
@<TRIPOS>BOND
   1    1    2 1
   2    1    6 1
   3    1    7 am
   4    2    3 1
   5    2   30 1
   6    2   31 1
   7    3    4 1
   8    3   32 1
   9    3   33 1
  10    4    5 1
  11    4   16 1
  12    5    6 1
  13    5   34 1
  14    5   35 1
  15    6   36 1
  16    6   37 1
  17    7    8 2
  18    7    9 am
  19    9   10 1
  20    9   38 1
  21   10   11 ar
  22   10   15 ar
  23   11   12 ar
  24   11   39 1
  25   12   13 ar
  26   12   40 1
  27   13   14 ar
  28   13   41 1
  29   14   15 ar
  30   14   42 1
  31   15   43 1
  32   16   17 1
  33   16   44 1
  34   16   45 1
  35   17   18 ar
  36   17   22 ar
  37   18   19 ar
  38   18   46 1
  39   19   20 ar
  40   19   47 1
  41   20   21 ar
  42   20   23 1
  43   21   22 ar
  44   21   25 1
  45   22   48 1
  46   23   24 ar
  47   23   26 ar
  48   24   25 1
  49   24   29 ar
  50   25   49 1
  51   25   50 1
  52   26   27 ar
  53   26   51 1
  54   27   28 ar
  55   27   52 1
  56   28   29 ar
  57   28   53 1
  58   29   54 1

#	End of record

