#	Name: ASD03240901
#	Creating user name:	WinNT
#	Creation time:	15. 06. 2019 20:35

#	Modifying user name:	WinNT
#	Modification time:	15. 06. 2019 20:35

#	Program:	/corina/corina34_cracker 3.40 0067  02.08.2006

@<TRIPOS>MOLECULE
ASD03240901
  78   84    0    0    0
SMALL
NO_CHARGES


@<TRIPOS>ATOM
   1 N1            -0.0216     1.4832     0.0258 N.3     
   2 C2            -0.0044     0.0149     0.0118 C.3     
   3 C3             0.6994    -0.5004     1.2692 C.3     
   4 C4             2.1297     0.0450     1.3074 C.3     
   5 C5             2.0852     1.5751     1.2723 C.3     
   6 C6             1.3411     2.0303     0.0148 C.3     
   7 C7             2.8086    -0.4102     2.5735 C.2     
   8 O8             2.2087    -1.1027     3.3680 O.2     
   9 N9             4.0825    -0.0476     2.8228 N.am    
  10 C10            4.6743    -0.3741     4.0425 C.ar    
  11 C11            6.0283    -0.6899     4.0945 C.ar    
  12 C12            6.6157    -1.0131     5.2969 C.ar    
  13 C13            5.8503    -1.0233     6.4662 C.ar    
  14 C14            4.4907    -0.7051     6.4105 C.ar    
  15 C15            3.9108    -0.3777     5.2055 C.ar    
  16 C16            6.4766    -1.3698     7.7570 C.2     
  17 N17            5.7371    -1.3791     8.8838 N.am    
  18 O18            7.6595    -1.6467     7.8039 O.2     
  19 C19           -0.8099     2.0112    -1.0956 C.3     
  20 C20           -1.0114     3.4936    -0.9141 C.ar    
  21 C21           -0.0927     4.3834    -1.4417 C.ar    
  22 C22           -0.2719     5.7418    -1.2792 C.ar    
  23 C23           -1.3820     6.2174    -0.5813 C.ar    
  24 C24           -2.3047     5.3152    -0.0516 C.ar    
  25 C25           -2.1172     3.9593    -0.2254 C.ar    
  26 N26            0.4527    10.5777     0.0919 N.pl3   
  27 C27            0.2917    11.9265     0.2591 C.2     
  28 N28           -0.9228    12.5040     0.2655 N.2     
  29 C29           -2.0214    11.8106     0.1124 C.2     
  30 C30           -1.9282    10.3639    -0.0715 C.ar    
  31 C31           -3.0671     9.5688    -0.2394 C.ar    
  32 C32           -2.8867     8.2001    -0.4083 C.ar    
  33 C33           -1.5800     7.6740    -0.4028 C.ar    
  34 N34           -0.5252     8.4585    -0.2406 N.ar    
  35 C35           -0.6510     9.7641    -0.0777 C.ar    
  36 C36            1.5627    12.4663     0.4025 C.2     
  37 C37            2.4768    11.4236     0.3184 C.2     
  38 N38            1.8242    10.3001     0.1398 N.2     
  39 C39           -4.0552     7.3058    -0.5903 C.ar    
  40 C40           -5.1326     7.3741     0.2915 C.ar    
  41 C41           -6.2177     6.5396     0.1169 C.ar    
  42 C42           -6.2375     5.6364    -0.9307 C.ar    
  43 C43           -5.1710     5.5638    -1.8087 C.ar    
  44 C44           -4.0830     6.3974    -1.6473 C.ar    
  45 C45            3.9740    11.5603     0.4215 C.3     
  46 H46           -1.0277    -0.3601    -0.0111 H       
  47 H47            0.5298    -0.3337    -0.8721 H       
  48 H48            0.1579    -0.1637     2.1532 H       
  49 H49            0.7258    -1.5899     1.2509 H       
  50 H50            2.6831    -0.3232     0.4436 H       
  51 H51            1.5654     1.9445     2.1564 H       
  52 H52            3.1016     1.9685     1.2562 H       
  53 H53            1.8691     1.6723    -0.8691 H       
  54 H54            1.2952     3.1191    -0.0060 H       
  55 H55            4.5877     0.4404     2.1538 H       
  56 H56            6.6192    -0.6818     3.1905 H       
  57 H57            7.6666    -1.2588     5.3365 H       
  58 H58            3.8965    -0.7121     7.3123 H       
  59 H59            2.8610    -0.1278     5.1624 H       
  60 H60            4.7933    -1.1581     8.8464 H       
  61 H61            6.1487    -1.6068     9.7321 H       
  62 H62           -0.2798     1.8284    -2.0303 H       
  63 H63           -1.7793     1.5136    -1.1244 H       
  64 H64            0.7666     4.0139    -1.9816 H       
  65 H65            0.4461     6.4354    -1.6913 H       
  66 H66           -3.1660     5.6773     0.4900 H       
  67 H67           -2.8330     3.2599     0.1807 H       
  68 H68           -2.9839    12.3005     0.1220 H       
  69 H69           -4.0554    10.0043    -0.2382 H       
  70 H70            1.7985    13.5095     0.5522 H       
  71 H71           -5.1180     8.0786     1.1100 H       
  72 H72           -7.0529     6.5914     0.7997 H       
  73 H73           -7.0889     4.9853    -1.0635 H       
  74 H74           -5.1916     4.8563    -2.6244 H       
  75 H75           -3.2529     6.3430    -2.3360 H       
  76 H76            4.2771    11.4605     1.4638 H       
  77 H77            4.4518    10.7809    -0.1720 H       
  78 H78            4.2761    12.5385     0.0475 H       
@<TRIPOS>BOND
   1    1    2 1
   2    1    6 1
   3    1   19 1
   4    2    3 1
   5    2   46 1
   6    2   47 1
   7    3    4 1
   8    3   48 1
   9    3   49 1
  10    4    5 1
  11    4    7 1
  12    4   50 1
  13    5    6 1
  14    5   51 1
  15    5   52 1
  16    6   53 1
  17    6   54 1
  18    7    8 2
  19    7    9 am
  20    9   10 1
  21    9   55 1
  22   10   11 ar
  23   10   15 ar
  24   11   12 ar
  25   11   56 1
  26   12   13 ar
  27   12   57 1
  28   13   14 ar
  29   13   16 1
  30   14   15 ar
  31   14   58 1
  32   15   59 1
  33   16   17 am
  34   16   18 2
  35   17   60 1
  36   17   61 1
  37   19   20 1
  38   19   62 1
  39   19   63 1
  40   20   21 ar
  41   20   25 ar
  42   21   22 ar
  43   21   64 1
  44   22   23 ar
  45   22   65 1
  46   23   24 ar
  47   23   33 1
  48   24   25 ar
  49   24   66 1
  50   25   67 1
  51   26   27 1
  52   26   35 1
  53   26   38 1
  54   27   28 1
  55   27   36 2
  56   28   29 2
  57   29   30 1
  58   29   68 1
  59   30   31 ar
  60   30   35 ar
  61   31   32 ar
  62   31   69 1
  63   32   33 ar
  64   32   39 1
  65   33   34 ar
  66   34   35 ar
  67   36   37 1
  68   36   70 1
  69   37   38 2
  70   37   45 1
  71   39   40 ar
  72   39   44 ar
  73   40   41 ar
  74   40   71 1
  75   41   42 ar
  76   41   72 1
  77   42   43 ar
  78   42   73 1
  79   43   44 ar
  80   43   74 1
  81   44   75 1
  82   45   76 1
  83   45   77 1
  84   45   78 1

#	End of record

