#	Name: ASD01180136
#	Creating user name:	WinNT
#	Creation time:	15. 06. 2019 19:06

#	Modifying user name:	WinNT
#	Modification time:	15. 06. 2019 19:06

#	Program:	/corina/corina34_cracker 3.40 0067  02.08.2006

@<TRIPOS>MOLECULE
ASD01180136
  17   18    0    0    0
SMALL
NO_CHARGES


@<TRIPOS>ATOM
   1 N1            -0.0157     1.3067     0.0092 N.ar    
   2 C2             0.0021    -0.0041     0.0020 C.ar    
   3 C3             1.1974    -0.7211    -0.0128 C.ar    
   4 C4             2.3913    -0.0560    -0.0206 C.ar    
   5 C5             2.3678     1.3510    -0.0132 C.ar    
   6 C6             3.5548     2.1014    -0.0209 C.ar    
   7 C7             3.4919     3.4610    -0.0140 C.ar    
   8 C8             2.2619     4.1202     0.0007 C.ar    
   9 C9             1.0909     3.4221     0.0090 C.ar    
  10 C10            1.1169     2.0174     0.0022 C.ar    
  11 F11            2.2312     5.4708     0.0073 F       
  12 Br12           1.1670    -2.6118    -0.0214 Br      
  13 H13           -0.9341    -0.5426     0.0081 H       
  14 H14            3.3269    -0.5954    -0.0317 H       
  15 H15            4.5125     1.6022    -0.0320 H       
  16 H16            4.4055     4.0370    -0.0196 H       
  17 H17            0.1470     3.9468     0.0208 H       
@<TRIPOS>BOND
   1    1    2 ar
   2    1   10 ar
   3    2    3 ar
   4    2   13 1
   5    3    4 ar
   6    3   12 1
   7    4    5 ar
   8    4   14 1
   9    5    6 ar
  10    5   10 ar
  11    6    7 ar
  12    6   15 1
  13    7    8 ar
  14    7   16 1
  15    8    9 ar
  16    8   11 1
  17    9   10 ar
  18    9   17 1

#	End of record

