#	Name: ASD05490097
#	Creating user name:	WinNT
#	Creation time:	15. 06. 2019 21:01

#	Modifying user name:	WinNT
#	Modification time:	15. 06. 2019 21:01

#	Program:	/corina/corina34_cracker 3.40 0067  02.08.2006

@<TRIPOS>MOLECULE
ASD05490097
  44   46    0    0    0
SMALL
NO_CHARGES


@<TRIPOS>ATOM
   1 N1            -0.0178     1.4608     0.0101 N.pl3   
   2 O2             4.5582     2.8949    -0.0261 O.3     
   3 N3             2.7941     4.3826    -0.0015 N.ar    
   4 C4             1.4952     4.6638     0.0118 C.ar    
   5 C5             3.2233     3.1292    -0.0123 C.ar    
   6 N6             2.3949     2.0994    -0.0093 N.ar    
   7 C7             1.0795     2.2895     0.0040 C.ar    
   8 C8             0.5781     3.6006     0.0150 C.ar    
   9 N9             1.0558     5.9772     0.0226 N.pl3   
  10 C10           -1.1306     2.2546     0.0190 C.2     
  11 N11           -0.7773     3.5129     0.0270 N.2     
  12 C12            5.4173     4.0368    -0.0280 C.3     
  13 C13            6.8766     3.5771    -0.0442 C.3     
  14 O14            7.1483     2.8975    -1.2715 O.3     
  15 C15            8.4917     2.4246    -1.3889 C.3     
  16 C16            0.0021    -0.0041     0.0020 C.3     
  17 C17            0.0225    -0.5140     1.4200 C.ar    
  18 C18           -1.1726    -0.6680     2.1252 C.ar    
  19 C19           -1.1450    -1.1410     3.4387 C.ar    
  20 C20            0.0619    -1.4530     4.0310 C.ar    
  21 C21            1.2432    -1.2977     3.3254 C.ar    
  22 C22            1.2217    -0.8349     2.0220 C.ar    
  23 Br23           0.1026    -2.0932     5.8099 Br      
  24 O24           -2.4073     1.8048     0.0270 O.3     
  25 C25           -3.4422     2.7900     0.0462 C.3     
  26 C26           -2.4211    -0.3418     1.5044 C.1     
  27 N27           -3.4116    -0.0830     1.0119 N.1     
  28 H28            1.6985     6.7037     0.0206 H       
  29 H29            0.1053     6.1706     0.0323 H       
  30 H30            5.2168     4.6408    -0.9129 H       
  31 H31            5.2335     4.6312     0.8670 H       
  32 H32            7.5315     4.4439     0.0439 H       
  33 H33            7.0539     2.9012     0.7924 H       
  34 H34            8.6170     1.9208    -2.3473 H       
  35 H35            9.1802     3.2675    -1.3287 H       
  36 H36            8.7025     1.7248    -0.5803 H       
  37 H37           -0.8878    -0.3767    -0.5053 H       
  38 H38            0.8920    -0.3525    -0.5222 H       
  39 H39           -2.0659    -1.2620     3.9899 H       
  40 H40            2.1851    -1.5432     3.7932 H       
  41 H41            2.1467    -0.7161     1.4772 H       
  42 H42           -4.4139     2.2962     0.0508 H       
  43 H43           -3.3425     3.4042     0.9411 H       
  44 H44           -3.3595     3.4211    -0.8387 H       
@<TRIPOS>BOND
   1    1   16 1
   2    1    7 1
   3    1   10 1
   4    2   12 1
   5    2    5 1
   6    3    4 ar
   7    3    5 ar
   8    4    9 1
   9    4    8 ar
  10    5    6 ar
  11    6    7 ar
  12    7    8 ar
  13    8   11 1
  14    9   28 1
  15    9   29 1
  16   10   11 2
  17   10   24 1
  18   12   13 1
  19   12   30 1
  20   12   31 1
  21   13   14 1
  22   13   32 1
  23   13   33 1
  24   14   15 1
  25   15   34 1
  26   15   35 1
  27   15   36 1
  28   16   17 1
  29   16   37 1
  30   16   38 1
  31   17   18 ar
  32   17   22 ar
  33   18   19 ar
  34   18   26 1
  35   19   20 ar
  36   19   39 1
  37   20   21 ar
  38   20   23 1
  39   21   22 ar
  40   21   40 1
  41   22   41 1
  42   24   25 1
  43   25   42 1
  44   25   43 1
  45   25   44 1
  46   26   27 3

#	End of record

