#	Name: ASD06390037
#	Creating user name:	WinNT
#	Creation time:	15. 06. 2019 21:06

#	Modifying user name:	WinNT
#	Modification time:	15. 06. 2019 21:06

#	Program:	/corina/corina34_cracker 3.40 0067  02.08.2006

@<TRIPOS>MOLECULE
ASD06390037
  66   69    0    0    0
SMALL
NO_CHARGES


@<TRIPOS>ATOM
   1 C1            -0.0172     1.3922     0.1322 C.ar    
   2 C2            -4.4784     0.2933     1.2821 C.3     
   3 C3            -6.4990    -0.1602    -0.0317 C.2     
   4 C4            -4.4447     0.4199    -1.2391 C.3     
   5 C5            -3.1663    -0.4247    -1.2146 C.3     
   6 C6             0.0875    -2.6958    -0.0714 C.ar    
   7 C7             1.4068    -4.7785    -0.1598 C.3     
   8 C8             2.4865    -7.0086    -0.2587 C.2     
   9 F9             3.1119     2.9661     2.4020 F       
  10 C10            3.9590     2.9439     1.3498 C.ar    
  11 C11            5.1381     3.6650     1.3937 C.ar    
  12 C12            6.0050     3.6425     0.3170 C.ar    
  13 C13            5.6990     2.8999    -0.8097 C.ar    
  14 C14            4.5258     2.1758    -0.8656 C.ar    
  15 C15            3.6491     2.1886     0.2179 C.ar    
  16 C16            2.3868     1.4122     0.1635 C.ar    
  17 C17            1.1553     2.0846     0.1818 C.ar    
  18 C18            0.0020    -0.0057     0.0626 C.ar    
  19 C19           -1.1923    -0.7671     0.0088 C.ar    
  20 N20           -2.4249    -0.1495     0.0233 N.3     
  21 C21           -3.1987    -0.5463     1.2073 C.3     
  22 N22           -5.1930     0.1709     0.0024 N.am    
  23 C23           -7.2465    -0.4110     1.2526 C.3     
  24 C24           -8.7004    -0.7665     0.9354 C.3     
  25 O25           -7.0726    -0.2563    -1.0959 O.2     
  26 N26           -1.0951    -2.0867    -0.0562 N.ar    
  27 N27            0.1209    -4.0769    -0.1408 N.pl3   
  28 C28            1.1637    -6.2869    -0.2392 C.3     
  29 N29            2.5191    -8.3543    -0.3264 N.am    
  30 C30            3.8050    -9.0558    -0.3453 C.3     
  31 C31            1.2685    -9.1154    -0.3809 C.3     
  32 O32            3.5218    -6.3785    -0.2136 O.2     
  33 N33            1.2294    -2.0375    -0.0235 N.ar    
  34 C34            1.2388    -0.6967     0.0440 C.ar    
  35 C35            2.4334     0.0296     0.0955 C.ar    
  36 Cl36           1.1252     3.8182     0.2680 Cl      
  37 H37           -0.9590     1.9204     0.1510 H       
  38 H38           -5.1103    -0.0735     2.0909 H       
  39 H39           -4.2214     1.3371     1.4629 H       
  40 H40           -4.1843     1.4764    -1.3041 H       
  41 H41           -5.0543     0.1367    -2.0971 H       
  42 H42           -3.4282    -1.4821    -1.2543 H       
  43 H43           -2.5460    -0.1707    -2.0742 H       
  44 H44            1.9832    -4.4572    -1.0274 H       
  45 H45            1.9604    -4.5471     0.7502 H       
  46 H46            5.3820     4.2470     2.2702 H       
  47 H47            6.9249     4.2071     0.3554 H       
  48 H48            6.3802     2.8871    -1.6477 H       
  49 H49            4.2888     1.5972    -1.7462 H       
  50 H50           -2.6019    -0.3805     2.1042 H       
  51 H51           -3.4601    -1.6020     1.1339 H       
  52 H52           -6.7795    -1.2366     1.7896 H       
  53 H53           -7.2184     0.4865     1.8705 H       
  54 H54           -9.2411    -0.9479     1.8643 H       
  55 H55           -9.1675     0.0591     0.3984 H       
  56 H56           -8.7285    -1.6639     0.3174 H       
  57 H57           -0.7071    -4.5809    -0.1769 H       
  58 H58            0.5873    -6.6082     0.6283 H       
  59 H59            0.6101    -6.5183    -1.1492 H       
  60 H60            4.1108    -9.2817     0.6762 H       
  61 H61            3.7044    -9.9839    -0.9081 H       
  62 H62            4.5568    -8.4239    -0.8183 H       
  63 H63            0.9716    -9.2523    -1.4207 H       
  64 H64            1.4153   -10.0893     0.0863 H       
  65 H65            0.4884    -8.5711     0.1512 H       
  66 H66            3.3838    -0.4834     0.0817 H       
@<TRIPOS>BOND
   1    1   18 ar
   2    1   17 ar
   3    1   37 1
   4    2   21 1
   5    2   38 1
   6    2   39 1
   7    2   22 1
   8    3   25 2
   9    3   22 am
  10    3   23 1
  11    4    5 1
  12    4   22 1
  13    4   40 1
  14    4   41 1
  15    5   20 1
  16    5   42 1
  17    5   43 1
  18    6   27 1
  19    6   33 ar
  20    6   26 ar
  21    7   28 1
  22    7   44 1
  23    7   45 1
  24    7   27 1
  25    8   32 2
  26    8   28 1
  27    8   29 am
  28    9   10 1
  29   10   11 ar
  30   10   15 ar
  31   11   46 1
  32   11   12 ar
  33   12   47 1
  34   12   13 ar
  35   13   48 1
  36   13   14 ar
  37   14   15 ar
  38   14   49 1
  39   15   16 1
  40   16   35 ar
  41   16   17 ar
  42   17   36 1
  43   18   34 ar
  44   18   19 ar
  45   19   26 ar
  46   19   20 1
  47   20   21 1
  48   21   50 1
  49   21   51 1
  50   23   24 1
  51   23   52 1
  52   23   53 1
  53   24   54 1
  54   24   55 1
  55   24   56 1
  56   27   57 1
  57   28   58 1
  58   28   59 1
  59   29   30 1
  60   29   31 1
  61   30   60 1
  62   30   61 1
  63   30   62 1
  64   31   63 1
  65   31   64 1
  66   31   65 1
  67   33   34 ar
  68   34   35 ar
  69   35   66 1

#	End of record

