#	Name: ASD03320207
#	Creating user name:	WinNT
#	Creation time:	15. 06. 2019 20:36

#	Modifying user name:	WinNT
#	Modification time:	15. 06. 2019 20:36

#	Program:	/corina/corina34_cracker 3.40 0067  02.08.2006

@<TRIPOS>MOLECULE
ASD03320207
  43   45    0    0    0
SMALL
NO_CHARGES


@<TRIPOS>ATOM
   1 C1            -0.0073     1.3430    -0.1945 C.ar    
   2 C2             0.0219    -0.0350     0.0266 C.ar    
   3 N3            -1.0908    -0.7396     0.0433 N.ar    
   4 C4            -2.2715    -0.1853    -0.1452 C.ar    
   5 C5            -2.3917     1.1848    -0.3728 C.ar    
   6 C6            -1.2407     1.9715    -0.3937 C.ar    
   7 C7             1.2458     2.1270    -0.2117 C.2     
   8 O8             1.2097     3.3266    -0.4051 O.2     
   9 N9             2.4284     1.5117    -0.0130 N.am    
  10 C10            3.6219     2.2354    -0.1262 C.ar    
  11 C11           -3.7272     1.7986    -0.5844 C.2     
  12 C12            3.6728     3.5603     0.2867 C.ar    
  13 C13            4.8500     4.2732     0.1747 C.ar    
  14 C14            5.9815     3.6665    -0.3506 C.ar    
  15 C15            5.9315     2.3430    -0.7633 C.ar    
  16 C16            4.7566     1.6269    -0.6462 C.ar    
  17 O17            7.1401     4.3694    -0.4614 O.3     
  18 C18            8.2660     3.6821    -1.0110 C.3     
  19 F19            7.9622     3.2514    -2.3069 F       
  20 F20            9.3653     4.5464    -1.0525 F       
  21 F21            8.5726     2.5756    -0.2117 F       
  22 C22           -4.9248     1.1454    -0.5776 C.2     
  23 N23           -5.8893     2.0594    -0.8064 N.pl3   
  24 N24           -5.2793     3.3103    -0.9593 N.2     
  25 C25           -3.9882     3.1620    -0.8225 C.2     
  26 C26           -7.3273     1.7900    -0.8825 C.3     
  27 C27           -8.0676     2.6875     0.1112 C.3     
  28 O28           -9.4703     2.4247     0.0369 O.3     
  29 H29            0.9688    -0.5295     0.1856 H       
  30 H30           -3.1584    -0.8013    -0.1233 H       
  31 H31           -1.2994     3.0359    -0.5670 H       
  32 H32            2.4528     0.5677     0.2084 H       
  33 H33            2.7918     4.0330     0.6951 H       
  34 H34            4.8898     5.3036     0.4959 H       
  35 H35            6.8127     1.8714    -1.1725 H       
  36 H36            4.7179     0.5964    -0.9673 H       
  37 H37           -5.0735     0.0876    -0.4182 H       
  38 H38           -3.2497     3.9476    -0.8837 H       
  39 H39           -7.6826     1.9956    -1.8923 H       
  40 H40           -7.5146     0.7446    -0.6373 H       
  41 H41           -7.7124     2.4819     1.1209 H       
  42 H42           -7.8803     3.7329    -0.1341 H       
  43 H43          -10.0031     2.9594     0.6413 H       
@<TRIPOS>BOND
   1    1    2 ar
   2    1    7 1
   3    1    6 ar
   4    2    3 ar
   5    2   29 1
   6    3    4 ar
   7    4    5 ar
   8    4   30 1
   9    5    6 ar
  10    5   11 1
  11    6   31 1
  12    7    8 2
  13    7    9 am
  14    9   10 1
  15    9   32 1
  16   10   12 ar
  17   10   16 ar
  18   11   25 1
  19   11   22 2
  20   12   13 ar
  21   12   33 1
  22   13   14 ar
  23   13   34 1
  24   14   15 ar
  25   14   17 1
  26   15   16 ar
  27   15   35 1
  28   16   36 1
  29   17   18 1
  30   18   19 1
  31   18   20 1
  32   18   21 1
  33   22   23 1
  34   22   37 1
  35   23   26 1
  36   23   24 1
  37   24   25 2
  38   25   38 1
  39   26   27 1
  40   26   39 1
  41   26   40 1
  42   27   28 1
  43   27   41 1
  44   27   42 1
  45   28   43 1

#	End of record

