#	Name: ASD07480020
#	Creating user name:	WinNT
#	Creation time:	15. 06. 2019 21:11

#	Modifying user name:	WinNT
#	Modification time:	15. 06. 2019 21:11

#	Program:	/corina/corina34_cracker 3.40 0067  02.08.2006

@<TRIPOS>MOLECULE
ASD07480020
  51   55    0    0    0
SMALL
NO_CHARGES


@<TRIPOS>ATOM
   1 C1            -0.0170     1.4044     0.0098 C.2     
   2 C2             0.0021    -0.0041     0.0020 C.2     
   3 N3             1.1387    -0.6606    -0.0123 N.2     
   4 N4             2.3537     0.0270    -0.0202 N.pl3   
   5 C5             2.3691     1.4002    -0.0130 C.2     
   6 C6             1.1495     2.1027     0.0024 C.2     
   7 C7             3.6601    -0.3624    -0.0348 C.2     
   8 N8             4.3966     0.7335    -0.0359 N.2     
   9 N9             3.6398     1.7744    -0.0231 N.2     
  10 N10           -1.1977    -0.7076     0.0101 N.pl3   
  11 C11           -1.1880    -2.1725     0.0022 C.3     
  12 C12           -2.6053    -2.6844     0.0135 C.ar    
  13 C13           -3.3387    -2.7173    -1.1601 C.ar    
  14 C14           -4.6409    -3.1881    -1.1498 C.ar    
  15 C15           -5.2081    -3.6254     0.0317 C.ar    
  16 C16           -4.4745    -3.5924     1.2057 C.ar    
  17 C17           -3.1711    -3.1262     1.1945 C.ar    
  18 F18           -2.7841    -2.2898    -2.3155 F       
  19 F19           -5.0292    -4.0195     2.3611 F       
  20 C20            4.1594    -1.7532    -0.0465 C.ar    
  21 C21            5.4914    -2.0157    -0.3735 C.ar    
  22 C22            5.9540    -3.3138    -0.3831 C.ar    
  23 C23            5.0959    -4.3615    -0.0681 C.ar    
  24 C24            3.7691    -4.1036     0.2574 C.ar    
  25 C25            3.3017    -2.8073     0.2749 C.ar    
  26 N26            5.5677    -5.6756    -0.0792 N.3     
  27 C27            4.5014    -6.6212     0.2816 C.3     
  28 C28            5.0446    -8.0502     0.1990 C.3     
  29 O29            6.1865    -8.1708     1.0515 O.3     
  30 C30            7.2448    -7.2648     0.7280 C.3     
  31 C31            6.7239    -5.8279     0.8159 C.3     
  32 H32           -0.9601     1.9307     0.0171 H       
  33 H33            1.1405     3.1826     0.0086 H       
  34 H34           -2.0409    -0.2282     0.0211 H       
  35 H35           -0.6806    -2.5276    -0.8948 H       
  36 H36           -0.6629    -2.5372     0.8851 H       
  37 H37           -5.2133    -3.2132    -2.0653 H       
  38 H38           -6.2237    -3.9925     0.0397 H       
  39 H39           -2.5988    -3.1008     2.1100 H       
  40 H40            6.1582    -1.2024    -0.6189 H       
  41 H41            6.9840    -3.5176    -0.6358 H       
  42 H42            3.1049    -4.9197     0.5008 H       
  43 H43            2.2709    -2.6076     0.5278 H       
  44 H44            4.1636    -6.4184     1.2979 H       
  45 H45            3.6661    -6.5089    -0.4096 H       
  46 H46            4.2746    -8.7515     0.5207 H       
  47 H47            5.3327    -8.2713    -0.8287 H       
  48 H48            8.0660    -7.3980     1.4323 H       
  49 H49            7.5968    -7.4631    -0.2843 H       
  50 H50            7.5109    -5.1364     0.5149 H       
  51 H51            6.4216    -5.6124     1.8408 H       
@<TRIPOS>BOND
   1    1    2 1
   2    1    6 2
   3    1   32 1
   4    2    3 2
   5    2   10 1
   6    3    4 1
   7    4    5 1
   8    4    7 1
   9    5    6 1
  10    5    9 2
  11    6   33 1
  12    7    8 2
  13    7   20 1
  14    8    9 1
  15   10   11 1
  16   10   34 1
  17   11   12 1
  18   11   35 1
  19   11   36 1
  20   12   13 ar
  21   12   17 ar
  22   13   14 ar
  23   13   18 1
  24   14   15 ar
  25   14   37 1
  26   15   16 ar
  27   15   38 1
  28   16   17 ar
  29   16   19 1
  30   17   39 1
  31   20   21 ar
  32   20   25 ar
  33   21   22 ar
  34   21   40 1
  35   22   23 ar
  36   22   41 1
  37   23   24 ar
  38   23   26 1
  39   24   25 ar
  40   24   42 1
  41   25   43 1
  42   26   27 1
  43   26   31 1
  44   27   28 1
  45   27   44 1
  46   27   45 1
  47   28   29 1
  48   28   46 1
  49   28   47 1
  50   29   30 1
  51   30   31 1
  52   30   48 1
  53   30   49 1
  54   31   50 1
  55   31   51 1

#	End of record

