#	Name: ASD01812812
#	Creating user name:	WinNT
#	Creation time:	15. 06. 2019 19:29

#	Modifying user name:	WinNT
#	Modification time:	15. 06. 2019 19:29

#	Program:	/corina/corina34_cracker 3.40 0067  02.08.2006

@<TRIPOS>MOLECULE
ASD01812812
  55   58    0    0    0
SMALL
NO_CHARGES


@<TRIPOS>ATOM
   1 N1            -0.0158     1.3147     0.0093 N.ar    
   2 C2             0.0021    -0.0041     0.0020 C.ar    
   3 C3             1.1989    -0.7033    -0.0127 C.ar    
   4 C4             2.3829    -0.0013    -0.0202 C.ar    
   5 C5             2.3448     1.3978    -0.0128 C.ar    
   6 C6             1.0955     2.0332     0.0025 C.ar    
   7 C7             3.8373    -0.3889    -0.0363 C.3     
   8 N8             4.5955     0.8684    -0.0373 N.am    
   9 C9             3.7280     1.8961    -0.0237 C.2     
  10 C10            6.0558     0.9844    -0.0504 C.3     
  11 C11            6.5432     1.0311    -1.4757 C.ar    
  12 C12            6.6712     2.2480    -2.1207 C.ar    
  13 C13            7.1171     2.2964    -3.4260 C.ar    
  14 C14            7.4386     1.1168    -4.0938 C.ar    
  15 C15            7.3079    -0.1061    -3.4394 C.ar    
  16 C16            6.8664    -0.1427    -2.1322 C.ar    
  17 O17            1.0255     3.3856     0.0100 O.3     
  18 O18            4.0429     3.0706    -0.0212 O.2     
  19 C19            7.9183     1.1627    -5.4979 C.2     
  20 C20            8.2645     0.0998    -6.2809 C.2     
  21 N21            8.0935     2.2598    -6.2561 N.2     
  22 N22            8.5204     1.8989    -7.4144 N.2     
  23 N23            8.6313     0.6186    -7.4745 N.pl3   
  24 C24            9.0849    -0.1477    -8.6378 C.3     
  25 C25           -0.2795     3.9677     0.0251 C.3     
  26 C26           -0.1594     5.4699     0.0316 C.ar    
  27 C27           -1.3000     6.2554     0.0462 C.ar    
  28 C28           -1.1895     7.6349     0.0526 C.ar    
  29 C29            0.0614     8.2281     0.0444 C.ar    
  30 C30            1.2002     7.4409     0.0298 C.ar    
  31 C31            1.0886     6.0631     0.0287 C.ar    
  32 F32           -2.5200     5.6752     0.0538 F       
  33 F33            0.1708     9.5747     0.0501 F       
  34 H34           -0.9309    -0.5480     0.0080 H       
  35 H35            1.2023    -1.7833    -0.0178 H       
  36 H36            4.0797    -0.9721     0.8522 H       
  37 H37            4.0624    -0.9631    -0.9351 H       
  38 H38            6.3524     1.8979     0.4651 H       
  39 H39            6.4932     0.1235     0.4552 H       
  40 H40            6.4214     3.1618    -1.6021 H       
  41 H41            7.2164     3.2470    -3.9288 H       
  42 H42            7.5554    -1.0235    -3.9527 H       
  43 H43            6.7692    -1.0898    -1.6224 H       
  44 H44            8.2490    -0.9439    -6.0034 H       
  45 H45            8.2270    -0.4110    -9.2564 H       
  46 H46            9.7817     0.4549    -9.2205 H       
  47 H47            9.5835    -1.0569    -8.3020 H       
  48 H48           -0.8289     3.6509    -0.8614 H       
  49 H49           -0.8123     3.6419     0.9185 H       
  50 H50           -2.0783     8.2482     0.0636 H       
  51 H51            2.1761     7.9034     0.0233 H       
  52 H52            1.9776     5.4497     0.0218 H       
  53 O53           14.7817    15.5416     5.9247 O.3     
  54 H54           14.7948    14.5747     5.9194 H       
  55 H55           15.6596    15.9469     5.9185 H       
@<TRIPOS>BOND
   1    1    2 ar
   2    1    6 ar
   3    2    3 ar
   4    2   34 1
   5    3    4 ar
   6    3   35 1
   7    4    7 1
   8    4    5 ar
   9    5    6 ar
  10    5    9 1
  11    6   17 1
  12    7    8 1
  13    7   36 1
  14    7   37 1
  15    8    9 am
  16    8   10 1
  17    9   18 2
  18   10   11 1
  19   10   38 1
  20   10   39 1
  21   11   12 ar
  22   11   16 ar
  23   12   13 ar
  24   12   40 1
  25   13   14 ar
  26   13   41 1
  27   14   15 ar
  28   14   19 1
  29   15   16 ar
  30   15   42 1
  31   16   43 1
  32   17   25 1
  33   19   21 1
  34   19   20 2
  35   20   23 1
  36   20   44 1
  37   21   22 2
  38   22   23 1
  39   23   24 1
  40   24   45 1
  41   24   46 1
  42   24   47 1
  43   25   26 1
  44   25   48 1
  45   25   49 1
  46   26   27 ar
  47   26   31 ar
  48   27   28 ar
  49   27   32 1
  50   28   29 ar
  51   28   50 1
  52   29   30 ar
  53   29   33 1
  54   30   31 ar
  55   30   51 1
  56   31   52 1
  57   53   54 1
  58   53   55 1

#	End of record

