#	Name: ASD03930215
#	Creating user name:	WinNT
#	Creation time:	15. 06. 2019 20:47

#	Modifying user name:	WinNT
#	Modification time:	15. 06. 2019 20:47

#	Program:	/corina/corina34_cracker 3.40 0067  02.08.2006

@<TRIPOS>MOLECULE
ASD03930215
  39   41    0    0    0
SMALL
NO_CHARGES


@<TRIPOS>ATOM
   1 C1            -1.5223    -3.6871     1.6996 C.ar    
   2 C2            -0.3797    -2.9190     1.4807 C.ar    
   3 C3             0.1225    -2.7825     0.1971 C.ar    
   4 C4            -0.5118    -3.4094    -0.8673 C.ar    
   5 C5            -1.6447    -4.1712    -0.6511 C.ar    
   6 C6            -2.1526    -4.3135     0.6246 C.ar    
   7 C7            -2.0614    -3.8425     3.0698 C.2     
   8 N8            -1.4689    -3.2618     4.0715 N.2     
   9 N9            -3.1964    -4.6059     3.2848 N.pl3   
  10 O10           -1.9845    -3.4104     5.3819 O.3     
  11 O11            1.2360    -2.0347    -0.0207 O.3     
  12 S12            3.9153    -6.3786     0.5646 S.o2    
  13 N13            4.6987    -6.5712     2.0230 N.am    
  14 C14            6.1284    -6.2900     2.1092 C.3     
  15 C15            6.4665    -4.8337     1.8282 C.3     
  16 O16            6.1376    -4.4753     0.4807 O.3     
  17 C17            4.9259    -3.8894     0.3055 C.ar    
  18 C18            3.7481    -4.6214     0.3655 C.ar    
  19 C19            4.8470    -2.5196     0.0793 C.ar    
  20 C20            3.6139    -1.9096    -0.0373 C.ar    
  21 C21            2.4454    -2.6494     0.0691 C.ar    
  22 C22            2.5187    -4.0248     0.2688 C.ar    
  23 O23            4.8125    -6.8218    -0.4443 O.2     
  24 O24            2.6035    -6.8987     0.7322 O.2     
  25 H25            0.1121    -2.4314     2.3094 H       
  26 H26           -0.1189    -3.3011    -1.8675 H       
  27 H27           -2.1340    -4.6565    -1.4826 H       
  28 H28           -3.0378    -4.9097     0.7902 H       
  29 H29           -3.6383    -5.0389     2.5377 H       
  30 H30           -3.5496    -4.7077     4.1824 H       
  31 H31           -1.4773    -2.9428     6.0595 H       
  32 H32            4.2094    -6.8669     2.8067 H       
  33 H33            6.4760    -6.5438     3.1106 H       
  34 H34            6.6533    -6.9173     1.3888 H       
  35 H35            5.9059    -4.1982     2.5138 H       
  36 H36            7.5331    -4.6772     1.9892 H       
  37 H37            5.7500    -1.9331    -0.0050 H       
  38 H38            3.5585    -0.8454    -0.2125 H       
  39 H39            1.6173    -4.6146     0.3470 H       
@<TRIPOS>BOND
   1    1    2 ar
   2    1    6 ar
   3    1    7 1
   4    2    3 ar
   5    2   25 1
   6    3    4 ar
   7    3   11 1
   8    4    5 ar
   9    4   26 1
  10    5    6 ar
  11    5   27 1
  12    6   28 1
  13    7    8 2
  14    7    9 1
  15    8   10 1
  16    9   29 1
  17    9   30 1
  18   10   31 1
  19   11   21 1
  20   12   13 am
  21   12   18 1
  22   12   23 2
  23   12   24 2
  24   13   14 1
  25   13   32 1
  26   14   15 1
  27   14   33 1
  28   14   34 1
  29   15   16 1
  30   15   35 1
  31   15   36 1
  32   16   17 1
  33   17   18 ar
  34   17   19 ar
  35   18   22 ar
  36   19   20 ar
  37   19   37 1
  38   20   21 ar
  39   20   38 1
  40   21   22 ar
  41   22   39 1

#	End of record

