#	Name: ASD08150224
#	Creating user name:	WinNT
#	Creation time:	15. 06. 2019 21:15

#	Modifying user name:	WinNT
#	Modification time:	15. 06. 2019 21:15

#	Program:	/corina/corina34_cracker 3.40 0067  02.08.2006

@<TRIPOS>MOLECULE
ASD08150224
  66   71    0    0    0
SMALL
NO_CHARGES


@<TRIPOS>ATOM
   1 N1             0.5816     0.0114    -1.3686 N.2     
   2 C2            -0.1116    -0.3087    -0.3185 C.2     
   3 N3             0.3047    -0.0674     0.9542 N.am    
   4 C4             1.4944     0.5344     1.1870 C.2     
   5 C5             2.3035     0.9094     0.0184 C.ar    
   6 C6             3.5425     1.5337     0.1497 C.ar    
   7 C7             4.2592     1.8639    -0.9795 C.ar    
   8 C8             3.7573     1.5799    -2.2429 C.ar    
   9 C9             2.5356     0.9637    -2.3945 C.ar    
  10 C10            1.7899     0.6191    -1.2652 C.ar    
  11 O11            1.8793     0.7569     2.3202 O.2     
  12 C12           -0.5053    -0.4446     2.0327 C.ar    
  13 C13           -1.3846     0.4709     2.5962 C.ar    
  14 C14           -2.1053    -1.1898     4.1635 C.ar    
  15 C15           -0.4349    -1.7362     2.5372 C.ar    
  16 C16           -2.1818     0.0959     3.6596 C.ar    
  17 C17           -1.2350    -2.1052     3.6010 C.ar    
  18 C18           -1.4682     1.8722     2.0481 C.3     
  19 C19            4.0940     1.8458     1.5170 C.3     
  20 C20           -1.4452    -0.9811    -0.5194 C.3     
  21 C21           -1.8820    -0.8222    -1.9771 C.3     
  22 N22           -1.3274    -2.4054    -0.1974 N.pl3   
  23 N23           -1.0206    -5.4453     0.1419 N.2     
  24 C24           -0.5417    -6.6439    -0.0245 C.2     
  25 N25            0.4993    -6.6116    -0.9040 N.pl3   
  26 C26            0.6643    -5.3079    -1.2982 C.ar    
  27 N27            1.4946    -4.6738    -2.1195 N.ar    
  28 C28            1.4001    -3.3727    -2.2961 C.ar    
  29 N29            0.4933    -2.6376    -1.6789 N.ar    
  30 C30           -0.3801    -3.1838    -0.8391 C.ar    
  31 C31           -0.3194    -4.5701    -0.6180 C.ar    
  32 O32           -3.1970    -1.3569    -2.1413 O.3     
  33 C33           -3.7024    -1.2579    -3.4743 C.3     
  34 C34           -5.0875    -1.8489    -3.5315 C.ar    
  35 C35           -6.1906    -1.0484    -3.3008 C.ar    
  36 C36           -7.4611    -1.5905    -3.3533 C.ar    
  37 C37           -7.6285    -2.9331    -3.6369 C.ar    
  38 C38           -6.5255    -3.7334    -3.8685 C.ar    
  39 C39           -5.2552    -3.1903    -3.8203 C.ar    
  40 H40            5.2196     2.3482    -0.8814 H       
  41 H41            4.3324     1.8461    -3.1175 H       
  42 H42            2.1554     0.7482    -3.3821 H       
  43 H43           -2.7296    -1.4806     4.9954 H       
  44 H44            0.2444    -2.4518     2.0980 H       
  45 H45           -2.8655     0.8075     4.0985 H       
  46 H46           -1.1773    -3.1083     3.9970 H       
  47 H47           -2.2208     1.9100     1.2606 H       
  48 H48           -1.7445     2.5593     2.8479 H       
  49 H49           -0.4999     2.1609     1.6394 H       
  50 H50            4.5855     0.9608     1.9212 H       
  51 H51            4.8155     2.6592     1.4408 H       
  52 H52            3.2798     2.1430     2.1780 H       
  53 H53           -2.1863    -0.5209     0.1342 H       
  54 H54           -1.8839     0.2349    -2.2427 H       
  55 H55           -1.1883    -1.3583    -2.6247 H       
  56 H56           -1.9134    -2.8028     0.4657 H       
  57 H57           -0.9138    -7.5330     0.4628 H       
  58 H58            1.0269    -7.3710    -1.1970 H       
  59 H59            2.0905    -2.8882    -2.9707 H       
  60 H60           -3.7420    -0.2098    -3.7709 H       
  61 H61           -3.0464    -1.8031    -4.1530 H       
  62 H62           -6.0597     0.0005    -3.0792 H       
  63 H63           -8.3229    -0.9652    -3.1723 H       
  64 H64           -8.6211    -3.3568    -3.6772 H       
  65 H65           -6.6563    -4.7824    -4.0897 H       
  66 H66           -4.3936    -3.8148    -4.0049 H       
@<TRIPOS>BOND
   1    1    2 2
   2    1   10 1
   3    2    3 1
   4    2   20 1
   5    3    4 am
   6    3   12 1
   7    4    5 1
   8    4   11 2
   9    5    6 ar
  10    5   10 ar
  11    6    7 ar
  12    6   19 1
  13    7    8 ar
  14    7   40 1
  15    8    9 ar
  16    8   41 1
  17    9   10 ar
  18    9   42 1
  19   12   13 ar
  20   12   15 ar
  21   13   16 ar
  22   13   18 1
  23   14   16 ar
  24   14   17 ar
  25   14   43 1
  26   15   17 ar
  27   15   44 1
  28   16   45 1
  29   17   46 1
  30   18   47 1
  31   18   48 1
  32   18   49 1
  33   19   50 1
  34   19   51 1
  35   19   52 1
  36   20   21 1
  37   20   22 1
  38   20   53 1
  39   21   32 1
  40   21   54 1
  41   21   55 1
  42   22   30 1
  43   22   56 1
  44   23   24 2
  45   23   31 1
  46   24   25 1
  47   24   57 1
  48   25   26 1
  49   25   58 1
  50   26   27 ar
  51   26   31 ar
  52   27   28 ar
  53   28   29 ar
  54   28   59 1
  55   29   30 ar
  56   30   31 ar
  57   32   33 1
  58   33   34 1
  59   33   60 1
  60   33   61 1
  61   34   35 ar
  62   34   39 ar
  63   35   36 ar
  64   35   62 1
  65   36   37 ar
  66   36   63 1
  67   37   38 ar
  68   37   64 1
  69   38   39 ar
  70   38   65 1
  71   39   66 1

#	End of record

