#	Name: ASD03331907
#	Creating user name:	WinNT
#	Creation time:	15. 06. 2019 20:40

#	Modifying user name:	WinNT
#	Modification time:	15. 06. 2019 20:40

#	Program:	/corina/corina34_cracker 3.40 0067  02.08.2006

@<TRIPOS>MOLECULE
ASD03331907
  63   65    0    0    0
SMALL
NO_CHARGES


@<TRIPOS>ATOM
   1 C1            -0.3265     1.1641     0.8311 C.2     
   2 N2            -0.3581    -0.1693     1.0630 N.pl3   
   3 C3             0.9293    -0.5882     1.2316 C.2     
   4 N4             1.7241     0.4509     1.1275 N.2     
   5 C5             0.9788     1.5505     0.8829 C.2     
   6 C6             1.4866     2.9223     0.7041 C.2     
   7 O7             0.7117     3.8342     0.4870 O.2     
   8 N8             2.8099     3.1664     0.7811 N.am    
   9 C9             3.3147     4.5301     0.6033 C.3     
  10 C10            3.4977     4.8158    -0.8886 C.3     
  11 C11            4.3957     3.7425    -1.5070 C.3     
  12 C12            4.6393     4.6712     1.3079 C.2     
  13 C13            2.1337     4.8009    -1.5817 C.3     
  14 C14            4.1464     6.1896    -1.0690 C.3     
  15 O15            5.2227     3.6851     1.7056 O.2     
  16 N16            5.1757     5.8933     1.4961 N.am    
  17 C17            6.4963     6.0260     2.1163 C.3     
  18 C18           -1.5690    -0.9919     1.1337 C.3     
  19 C19           -2.4718    -0.6608    -0.0586 C.3     
  20 C20           -3.3841     0.5096     0.2950 C.3     
  21 N21           -2.7083     1.4503     1.1911 N.3     
  22 C22           -1.5218     2.0382     0.5521 C.3     
  23 C23           -3.6320     2.4964     1.6498 C.3     
  24 C24            1.3577    -1.9807     1.4894 C.ar    
  25 C25            0.5088    -2.8618     2.1604 C.ar    
  26 C26            2.6091    -2.4194     1.0576 C.ar    
  27 C27            3.0032    -3.7217     1.3017 C.ar    
  28 C28            2.1571    -4.5889     1.9735 C.ar    
  29 C29            0.9128    -4.1593     2.3984 C.ar    
  30 F30            4.2147    -4.1494     0.8841 F       
  31 C31            2.5914    -6.0078     2.2366 C.3     
  32 H32            3.4279     2.4391     0.9542 H       
  33 H33            2.6019     5.2392     1.0243 H       
  34 H34            3.9335     2.7638    -1.3785 H       
  35 H35            4.5261     3.9460    -2.5699 H       
  36 H36            5.3674     3.7531    -1.0132 H       
  37 H37            1.4939     5.5656    -1.1412 H       
  38 H38            2.2641     5.0044    -2.6446 H       
  39 H39            1.6715     3.8222    -1.4532 H       
  40 H40            5.1044     6.2101    -0.5495 H       
  41 H41            4.3047     6.3802    -2.1305 H       
  42 H42            3.4924     6.9574    -0.6556 H       
  43 H43            4.6873     6.6849     1.2210 H       
  44 H44            6.7612     7.0811     2.1846 H       
  45 H45            6.4737     5.5916     3.1157 H       
  46 H46            7.2366     5.5041     1.5099 H       
  47 H47           -1.2954    -2.0465     1.1017 H       
  48 H48           -2.0994    -0.7802     2.0622 H       
  49 H49           -1.8554    -0.3935    -0.9168 H       
  50 H50           -3.0789    -1.5315    -0.3064 H       
  51 H51           -3.6703     1.0292    -0.6195 H       
  52 H52           -4.2804     0.1294     0.7851 H       
  53 H53           -1.3464     3.0351     0.9564 H       
  54 H54           -1.6821     2.1034    -0.5241 H       
  55 H55           -4.4626     2.0380     2.1863 H       
  56 H56           -3.1044     3.1813     2.3137 H       
  57 H57           -4.0142     3.0463     0.7897 H       
  58 H58           -0.4630    -2.5283     2.4933 H       
  59 H59            3.2685    -1.7435     0.5335 H       
  60 H60            0.2576    -4.8400     2.9217 H       
  61 H61            3.1078    -6.0579     3.1953 H       
  62 H62            1.7162    -6.6571     2.2610 H       
  63 H63            3.2644    -6.3347     1.4439 H       
@<TRIPOS>BOND
   1    1    2 1
   2    1    5 2
   3    1   22 1
   4    2    3 1
   5    2   18 1
   6    3    4 2
   7    3   24 1
   8    4    5 1
   9    5    6 1
  10    6    7 2
  11    6    8 am
  12    8    9 1
  13    8   32 1
  14    9   10 1
  15    9   12 1
  16    9   33 1
  17   10   11 1
  18   10   13 1
  19   10   14 1
  20   11   34 1
  21   11   35 1
  22   11   36 1
  23   12   15 2
  24   12   16 am
  25   13   37 1
  26   13   38 1
  27   13   39 1
  28   14   40 1
  29   14   41 1
  30   14   42 1
  31   16   17 1
  32   16   43 1
  33   17   44 1
  34   17   45 1
  35   17   46 1
  36   18   19 1
  37   18   47 1
  38   18   48 1
  39   19   20 1
  40   19   49 1
  41   19   50 1
  42   20   21 1
  43   20   51 1
  44   20   52 1
  45   21   22 1
  46   21   23 1
  47   22   53 1
  48   22   54 1
  49   23   55 1
  50   23   56 1
  51   23   57 1
  52   24   25 ar
  53   24   26 ar
  54   25   29 ar
  55   25   58 1
  56   26   27 ar
  57   26   59 1
  58   27   28 ar
  59   27   30 1
  60   28   29 ar
  61   28   31 1
  62   29   60 1
  63   31   61 1
  64   31   62 1
  65   31   63 1

#	End of record

