#	Name: ASD01815849
#	Creating user name:	WinNT
#	Creation time:	15. 06. 2019 19:34

#	Modifying user name:	WinNT
#	Modification time:	15. 06. 2019 19:34

#	Program:	/corina/corina34_cracker 3.40 0067  02.08.2006

@<TRIPOS>MOLECULE
ASD01815849
  50   55    0    0    0
SMALL
NO_CHARGES


@<TRIPOS>ATOM
   1 C1            -0.0167     1.3838     0.0097 C.ar    
   2 C2             0.0021    -0.0041     0.0020 C.ar    
   3 C3            -1.1855    -0.7101     0.0100 C.ar    
   4 C4            -2.3929    -0.0367     0.0252 C.ar    
   5 C5            -2.4172     1.3462     0.0329 C.ar    
   6 C6            -1.2326     2.0594     0.0307 C.ar    
   7 F7            -1.2561     3.4102     0.0382 F       
   8 N8             1.1856     2.1023     0.0020 N.am    
   9 C9             1.8869     2.4210    -1.1072 C.2     
  10 N10            1.8273     2.5965     1.1404 N.2     
  11 C11            2.9244     3.2227     0.8250 C.2     
  12 C12            3.0571     3.1631    -0.6497 C.2     
  13 O13            1.5998     2.1438    -2.2603 O.2     
  14 C14            3.9846     3.9288     1.5639 C.ar    
  15 C15            5.0469     4.4942     0.8364 C.ar    
  16 N16            5.0889     4.3865    -0.5417 N.pl3   
  17 C17            4.1403     3.7538    -1.2522 C.2     
  18 C18            3.9721     4.0561     2.9508 C.ar    
  19 C19            5.0078     4.7355     3.5606 C.ar    
  20 N20            5.9915     5.2560     2.8497 N.ar    
  21 C21            6.0459     5.1599     1.5366 C.ar    
  22 C22            6.2146     4.9915    -1.2581 C.3     
  23 C23            7.3280     3.9840    -1.3866 C.ar    
  24 C24            7.3775     3.1469    -2.4860 C.ar    
  25 C25            8.3965     2.2223    -2.6064 C.ar    
  26 C26            9.3718     2.1342    -1.6223 C.ar    
  27 C27            9.3196     2.9764    -0.5197 C.ar    
  28 C28            8.3011     3.9025    -0.4076 C.ar    
  29 N29           10.4070     1.1964    -1.7413 N.pl3   
  30 C30           11.4148     1.0073    -0.8598 C.2     
  31 C31           12.1997     0.0144    -1.3386 C.2     
  32 C32           11.6547    -0.4182    -2.5525 C.2     
  33 N33           10.5773     0.2853    -2.7917 N.2     
  34 H34            0.9444    -0.5317    -0.0105 H       
  35 H35           -1.1707    -1.7900     0.0041 H       
  36 H36           -3.3193    -0.5918     0.0307 H       
  37 H37           -3.3620     1.8692     0.0444 H       
  38 H38            4.2338     3.7061    -2.3271 H       
  39 H39            3.1694     3.6328     3.5364 H       
  40 H40            5.0133     4.8433     4.6352 H       
  41 H41            6.8722     5.6031     1.0006 H       
  42 H42            5.8889     5.3017    -2.2509 H       
  43 H43            6.5725     5.8600    -0.7052 H       
  44 H44            6.6185     3.2159    -3.2513 H       
  45 H45            8.4343     1.5682    -3.4650 H       
  46 H46           10.0767     2.9099     0.2476 H       
  47 H47            8.2600     4.5579     0.4498 H       
  48 H48           11.5664     1.5513     0.0608 H       
  49 H49           13.0897    -0.3754    -0.8670 H       
  50 H50           12.0521    -1.2010    -3.1816 H       
@<TRIPOS>BOND
   1    1    2 ar
   2    1    8 1
   3    1    6 ar
   4    2    3 ar
   5    2   34 1
   6    3    4 ar
   7    3   35 1
   8    4    5 ar
   9    4   36 1
  10    5    6 ar
  11    5   37 1
  12    6    7 1
  13    8    9 am
  14    8   10 1
  15    9   13 2
  16    9   12 1
  17   10   11 2
  18   11   12 1
  19   11   14 1
  20   12   17 2
  21   14   15 ar
  22   14   18 ar
  23   15   16 1
  24   15   21 ar
  25   16   17 1
  26   16   22 1
  27   17   38 1
  28   18   19 ar
  29   18   39 1
  30   19   20 ar
  31   19   40 1
  32   20   21 ar
  33   21   41 1
  34   22   23 1
  35   22   42 1
  36   22   43 1
  37   23   24 ar
  38   23   28 ar
  39   24   25 ar
  40   24   44 1
  41   25   26 ar
  42   25   45 1
  43   26   27 ar
  44   26   29 1
  45   27   28 ar
  46   27   46 1
  47   28   47 1
  48   29   30 1
  49   29   33 1
  50   30   31 2
  51   30   48 1
  52   31   32 1
  53   31   49 1
  54   32   33 2
  55   32   50 1

#	End of record

