#	Name: ASD01816018
#	Creating user name:	WinNT
#	Creation time:	15. 06. 2019 19:34

#	Modifying user name:	WinNT
#	Modification time:	15. 06. 2019 19:34

#	Program:	/corina/corina34_cracker 3.40 0067  02.08.2006

@<TRIPOS>MOLECULE
ASD01816018
  54   59    0    0    0
SMALL
NO_CHARGES


@<TRIPOS>ATOM
   1 C1             0.3070     1.3823    -1.5319 C.ar    
   2 C2             0.3223    -0.0030    -1.5209 C.ar    
   3 C3             1.4119    -0.6902    -1.0270 C.ar    
   4 C4             2.5092     0.0063    -0.5336 C.ar    
   5 C5             2.4907     1.4109    -0.5461 C.ar    
   6 C6             1.3862     2.0923    -1.0467 C.ar    
   7 N7             3.6066    -0.6779    -0.0356 N.pl3   
   8 C8             4.6947    -0.0575     0.4538 C.2     
   9 C9             4.7887     1.3115     0.4917 C.2     
  10 C10            3.6655     2.1304    -0.0179 C.2     
  11 C11            5.7894     2.2750     0.9406 C.2     
  12 N12            5.2683     3.4977     0.7012 N.am    
  13 N13            3.9992     3.3806     0.1287 N.2     
  14 C14            5.9086     4.7104     0.9866 C.ar    
  15 O15            6.8775     2.0258     1.4334 O.2     
  16 C16            3.5811    -2.0767    -0.0419 C.ar    
  17 C17            6.8021     5.2569     0.0751 C.ar    
  18 C18            7.4321     6.4528     0.3593 C.ar    
  19 C19            7.1745     7.1070     1.5502 C.ar    
  20 C20            6.2855     6.5670     2.4613 C.ar    
  21 C21            5.6466     5.3727     2.1811 C.ar    
  22 F22            4.7780     4.8449     3.0710 F       
  23 C23            4.0659    -2.7767    -1.1392 C.ar    
  24 C24            4.0393    -4.1576    -1.1422 C.ar    
  25 C25            3.5303    -4.8432    -0.0546 C.ar    
  26 C26            3.0468    -4.1492     1.0397 C.ar    
  27 C27            3.0761    -2.7687     1.0518 C.ar    
  28 C28            2.4926    -4.9006     2.2227 C.3     
  29 C29            3.6007    -5.1782     3.2055 C.ar    
  30 C30            3.8797    -4.2680     4.2078 C.ar    
  31 C31            4.3346    -6.3456     3.1081 C.ar    
  32 C32            5.3511    -6.6003     4.0096 C.ar    
  33 C33            5.6341    -5.6873     5.0082 C.ar    
  34 C34            4.8962    -4.5226     5.1093 C.ar    
  35 H35           -0.5503     1.9081    -1.9255 H       
  36 H36           -0.5270    -0.5503    -1.9024 H       
  37 H37            1.4122    -1.7701    -1.0232 H       
  38 H38            1.3735     3.1722    -1.0560 H       
  39 H39            5.5157    -0.6516     0.8270 H       
  40 H40            7.0047     4.7471    -0.8552 H       
  41 H41            8.1274     6.8776    -0.3496 H       
  42 H42            7.6691     8.0417     1.7693 H       
  43 H43            6.0866     7.0804     3.3904 H       
  44 H44            4.4629    -2.2418    -1.9893 H       
  45 H45            4.4161    -4.7025    -1.9951 H       
  46 H46            3.5100    -5.9230    -0.0598 H       
  47 H47            2.6988    -2.2274     1.9067 H       
  48 H48            1.7209    -4.3006     2.7051 H       
  49 H49            2.0618    -5.8432     1.8850 H       
  50 H50            3.3037    -3.3578     4.2864 H       
  51 H51            4.1135    -7.0589     2.3279 H       
  52 H52            5.9239    -7.5127     3.9340 H       
  53 H53            6.4280    -5.8864     5.7128 H       
  54 H54            5.1173    -3.8093     5.8895 H       
@<TRIPOS>BOND
   1    1    2 ar
   2    1    6 ar
   3    1   35 1
   4    2    3 ar
   5    2   36 1
   6    3    4 ar
   7    3   37 1
   8    4    5 ar
   9    4    7 1
  10    5    6 ar
  11    5   10 1
  12    6   38 1
  13    7    8 1
  14    7   16 1
  15    8    9 2
  16    8   39 1
  17    9   10 1
  18    9   11 1
  19   10   13 2
  20   11   12 am
  21   11   15 2
  22   12   13 1
  23   12   14 1
  24   14   17 ar
  25   14   21 ar
  26   16   23 ar
  27   16   27 ar
  28   17   18 ar
  29   17   40 1
  30   18   19 ar
  31   18   41 1
  32   19   20 ar
  33   19   42 1
  34   20   21 ar
  35   20   43 1
  36   21   22 1
  37   23   24 ar
  38   23   44 1
  39   24   25 ar
  40   24   45 1
  41   25   26 ar
  42   25   46 1
  43   26   27 ar
  44   26   28 1
  45   27   47 1
  46   28   29 1
  47   28   48 1
  48   28   49 1
  49   29   30 ar
  50   29   31 ar
  51   30   34 ar
  52   30   50 1
  53   31   32 ar
  54   31   51 1
  55   32   33 ar
  56   32   52 1
  57   33   34 ar
  58   33   53 1
  59   34   54 1

#	End of record

