#	Name: ASD07300637
#	Creating user name:	WinNT
#	Creation time:	15. 06. 2019 21:10

#	Modifying user name:	WinNT
#	Modification time:	15. 06. 2019 21:10

#	Program:	/corina/corina34_cracker 3.40 0067  02.08.2006

@<TRIPOS>MOLECULE
ASD07300637
  28   30    0    0    0
SMALL
NO_CHARGES


@<TRIPOS>ATOM
   1 C1             1.2300    -0.6658    -0.2459 C.2     
   2 C2             0.0021    -0.0041     0.0020 C.2     
   3 N3             2.3868     0.0701    -0.2471 N.pl3   
   4 N4            -0.0031     1.2951     0.2246 N.2     
   5 C5             1.1305     2.0038     0.2213 C.2     
   6 C6             2.3223     1.4181    -0.0096 C.2     
   7 N7             1.5429    -1.9259    -0.5010 N.2     
   8 C8             2.8648    -2.0256    -0.6607 C.2     
   9 C9             3.4110    -0.7903    -0.5071 C.2     
  10 O10            3.5487    -3.1689    -0.9348 O.3     
  11 N11           -1.1863    -0.7181     0.0100 N.pl3   
  12 C12           -1.1895    -2.1849    -0.1078 C.3     
  13 C13           -2.0518    -2.7589     1.0222 C.3     
  14 O14           -3.3298    -2.1183     1.0109 O.3     
  15 C15           -3.2810    -0.7105     1.2551 C.3     
  16 C16           -2.4814    -0.0321     0.1427 C.3     
  17 H17            1.0905     3.0669     0.4073 H       
  18 H18            3.2253     2.0107    -0.0079 H       
  19 H19            4.4586    -0.5381    -0.5794 H       
  20 H20            3.6538    -3.3476    -1.8793 H       
  21 H21           -1.6073    -2.4749    -1.0719 H       
  22 H22           -0.1707    -2.5625    -0.0202 H       
  23 H23           -2.1805    -3.8309     0.8733 H       
  24 H24           -1.5632    -2.5797     1.9800 H       
  25 H25           -4.2942    -0.3089     1.2738 H       
  26 H26           -2.7969    -0.5239     2.2137 H       
  27 H27           -2.3177     1.0153     0.3961 H       
  28 H28           -3.0315    -0.1016    -0.7958 H       
@<TRIPOS>BOND
   1    1    2 1
   2    1    3 1
   3    1    7 2
   4    2    4 2
   5    2   11 1
   6    3    6 1
   7    3    9 1
   8    4    5 1
   9    5    6 2
  10    5   17 1
  11    6   18 1
  12    7    8 1
  13    8    9 2
  14    8   10 1
  15    9   19 1
  16   10   20 1
  17   11   12 1
  18   11   16 1
  19   12   13 1
  20   12   21 1
  21   12   22 1
  22   13   14 1
  23   13   23 1
  24   13   24 1
  25   14   15 1
  26   15   16 1
  27   15   25 1
  28   15   26 1
  29   16   27 1
  30   16   28 1

#	End of record

