#	Name: ASD04880331
#	Creating user name:	WinNT
#	Creation time:	15. 06. 2019 20:53

#	Modifying user name:	WinNT
#	Modification time:	15. 06. 2019 20:53

#	Program:	/corina/corina34_cracker 3.40 0067  02.08.2006

@<TRIPOS>MOLECULE
ASD04880331
  48   50    0    0    0
SMALL
NO_CHARGES


@<TRIPOS>ATOM
   1 C1            -0.0158     1.3801     0.0186 C.ar    
   2 C2             0.0038    -0.0070    -0.0427 C.ar    
   3 C3             1.2075    -0.6847    -0.0967 C.ar    
   4 C4             2.3981     0.0131    -0.0901 C.ar    
   5 C5             2.3886     1.4076    -0.0287 C.ar    
   6 C6             1.1727     2.0902     0.0258 C.ar    
   7 C7             3.6617     2.1584    -0.0210 C.2     
   8 N8             4.8332     1.4977     0.0664 N.am    
   9 O9             3.6522     3.3722    -0.0934 O.2     
  10 N10            4.9772     0.1262     0.2661 N.2     
  11 C11            6.2015    -0.2730     0.3140 C.2     
  12 C12            7.1258     0.9098     0.1328 C.3     
  13 C13            6.1689     2.1060    -0.0397 C.3     
  14 C14            6.6341    -1.6678     0.5146 C.ar    
  15 C15            7.9955    -1.9808     0.5492 C.ar    
  16 C16            8.3980    -3.2861     0.7374 C.ar    
  17 C17            7.4543    -4.2911     0.8927 C.ar    
  18 C18            6.0952    -3.9865     0.8592 C.ar    
  19 C19            5.6840    -2.6795     0.6763 C.ar    
  20 O20            5.1731    -4.9744     1.0118 O.3     
  21 C21            3.7974    -4.5903     0.9668 C.3     
  22 O22            7.8566    -5.5763     1.0775 O.3     
  23 C23            9.2648    -5.8183     1.1009 C.3     
  24 O24           -1.2023     2.0413     0.0658 O.3     
  25 C25           -2.3893     1.2458     0.0490 C.3     
  26 F26           -2.4271     0.4892    -1.1271 F       
  27 F27           -2.3921     0.3889     1.1549 F       
  28 C28           -3.6158     2.1585     0.1079 C.3     
  29 H29           -0.9248    -0.5584    -0.0478 H       
  30 H30            1.2162    -1.7636    -0.1439 H       
  31 H31            3.3367    -0.5195    -0.1320 H       
  32 H32            1.1588     3.1691     0.0735 H       
  33 H33            7.7540     1.0425     1.0137 H       
  34 H34            7.7388     0.7828    -0.7595 H       
  35 H35            6.3030     2.5687    -1.0175 H       
  36 H36            6.3224     2.8356     0.7554 H       
  37 H37            8.7323    -1.2005     0.4283 H       
  38 H38            9.4505    -3.5268     0.7637 H       
  39 H39            4.6307    -2.4415     0.6546 H       
  40 H40            3.5793    -4.1326     0.0019 H       
  41 H41            3.1696    -5.4712     1.1013 H       
  42 H42            3.5939    -3.8742     1.7630 H       
  43 H43            9.7026    -5.5079     0.1522 H       
  44 H44            9.7177    -5.2499     1.9133 H       
  45 H45            9.4482    -6.8816     1.2550 H       
  46 H46           -3.6136     2.8261    -0.7537 H       
  47 H47           -4.5212     1.5518     0.0952 H       
  48 H48           -3.5864     2.7480     1.0243 H       
@<TRIPOS>BOND
   1    1    2 ar
   2    1    6 ar
   3    1   24 1
   4    2    3 ar
   5    2   29 1
   6    3    4 ar
   7    3   30 1
   8    4    5 ar
   9    4   31 1
  10    5    6 ar
  11    5    7 1
  12    6   32 1
  13    7    8 am
  14    7    9 2
  15    8   10 1
  16    8   13 1
  17   10   11 2
  18   11   12 1
  19   11   14 1
  20   12   13 1
  21   12   33 1
  22   12   34 1
  23   13   35 1
  24   13   36 1
  25   14   15 ar
  26   14   19 ar
  27   15   16 ar
  28   15   37 1
  29   16   17 ar
  30   16   38 1
  31   17   18 ar
  32   17   22 1
  33   18   19 ar
  34   18   20 1
  35   19   39 1
  36   20   21 1
  37   21   40 1
  38   21   41 1
  39   21   42 1
  40   22   23 1
  41   23   43 1
  42   23   44 1
  43   23   45 1
  44   24   25 1
  45   25   26 1
  46   25   27 1
  47   25   28 1
  48   28   46 1
  49   28   47 1
  50   28   48 1

#	End of record

