#	Name: ASD02398061
#	Creating user name:	WinNT
#	Creation time:	15. 06. 2019 20:20

#	Modifying user name:	WinNT
#	Modification time:	15. 06. 2019 20:20

#	Program:	/corina/corina34_cracker 3.40 0067  02.08.2006

@<TRIPOS>MOLECULE
ASD02398061
  51   54    0    0    0
SMALL
NO_CHARGES


@<TRIPOS>ATOM
   1 C1            -0.0882     1.3521    -0.1711 C.ar    
   2 C2            -0.0444    -0.0358    -0.0066 C.ar    
   3 C3            -1.2238    -0.7417     0.2173 C.ar    
   4 C4            -2.4282    -0.0697     0.2757 C.ar    
   5 C5            -2.4685     1.3035     0.1126 C.ar    
   6 C6            -1.3032     2.0145    -0.1049 C.ar    
   7 C7            -3.7039    -0.8348     0.5175 C.3     
   8 C8            -3.9395    -0.9626     2.0005 C.2     
   9 O9            -3.1010    -0.5779     2.7808 O.2     
  10 O10           -5.0809    -1.5037     2.4545 O.3     
  11 C11            1.2524    -0.7531    -0.0708 C.ar    
  12 C12            2.2095    -0.5582     0.9236 C.ar    
  13 C13            1.5161    -1.6285    -1.1223 C.ar    
  14 C14            2.7244    -2.2936    -1.1767 C.ar    
  15 C15            3.6724    -2.0925    -0.1901 C.ar    
  16 C16            3.4140    -1.2285     0.8591 C.ar    
  17 C17            1.9296     0.3830     2.0668 C.3     
  18 N18            3.1120     0.4714     2.9272 N.am    
  19 C19            3.3809    -0.3204     4.0434 C.ar    
  20 O20            1.0571     2.0492    -0.3895 O.3     
  21 O21            5.0393     1.1195     3.7571 O.3     
  22 C22            4.6067     0.1095     4.5510 C.ar    
  23 C23            5.1354    -0.4996     5.6783 C.ar    
  24 C24            4.4499    -1.5313     6.2895 C.ar    
  25 C25            3.2362    -1.9609     5.7816 C.ar    
  26 C26            2.6983    -1.3557     4.6625 C.ar    
  27 C27            0.9352     3.4641    -0.5482 C.3     
  28 C28            4.1415     1.3289     2.7814 C.2     
  29 O29            4.2403     2.1648     1.9039 O.2     
  30 C30            4.9895    -2.8220    -0.2547 C.3     
  31 F31            5.0166    -3.6357    -1.3924 F       
  32 F32            6.0340    -1.8936    -0.3205 F       
  33 F33            5.1407    -3.6138     0.8887 F       
  34 H34           -1.1962    -1.8138     0.3447 H       
  35 H35           -3.4142     1.8229     0.1595 H       
  36 H36           -1.3409     3.0864    -0.2315 H       
  37 H37           -4.5387    -0.3026     0.0615 H       
  38 H38           -3.6212    -1.8278     0.0759 H       
  39 H39           -5.2208    -1.4949     3.4113 H       
  40 H40            0.7763    -1.7866    -1.8931 H       
  41 H41            2.9297    -2.9727    -1.9910 H       
  42 H42            4.1579    -1.0751     1.6268 H       
  43 H43            1.6916     1.3714     1.6737 H       
  44 H44            1.0855     0.0096     2.6465 H       
  45 H45            6.0823    -0.1680     6.0781 H       
  46 H46            4.8632    -2.0052     7.1675 H       
  47 H47            2.7060    -2.7685     6.2644 H       
  48 H48            1.7509    -1.6920     4.2677 H       
  49 H49            0.2936     3.6799    -1.4025 H       
  50 H50            0.4977     3.8944     0.3527 H       
  51 H51            1.9213     3.8972    -0.7158 H       
@<TRIPOS>BOND
   1    1    2 ar
   2    1   20 1
   3    1    6 ar
   4    2    3 ar
   5    2   11 1
   6    3    4 ar
   7    3   34 1
   8    4    5 ar
   9    4    7 1
  10    5    6 ar
  11    5   35 1
  12    6   36 1
  13    7    8 1
  14    7   37 1
  15    7   38 1
  16    8    9 2
  17    8   10 1
  18   10   39 1
  19   11   12 ar
  20   11   13 ar
  21   12   17 1
  22   12   16 ar
  23   13   14 ar
  24   13   40 1
  25   14   15 ar
  26   14   41 1
  27   15   16 ar
  28   15   30 1
  29   16   42 1
  30   17   18 1
  31   17   43 1
  32   17   44 1
  33   18   28 am
  34   18   19 1
  35   19   22 ar
  36   19   26 ar
  37   20   27 1
  38   21   22 1
  39   21   28 1
  40   22   23 ar
  41   23   24 ar
  42   23   45 1
  43   24   25 ar
  44   24   46 1
  45   25   26 ar
  46   25   47 1
  47   26   48 1
  48   27   49 1
  49   27   50 1
  50   27   51 1
  51   28   29 2
  52   30   31 1
  53   30   32 1
  54   30   33 1

#	End of record

