#	Name: ASD06660078
#	Creating user name:	WinNT
#	Creation time:	15. 06. 2019 21:07

#	Modifying user name:	WinNT
#	Modification time:	15. 06. 2019 21:07

#	Program:	/corina/corina34_cracker 3.40 0067  02.08.2006

@<TRIPOS>MOLECULE
ASD06660078
  77   81    0    0    0
SMALL
NO_CHARGES


@<TRIPOS>ATOM
   1 C1            -0.0184     1.5028     0.0103 C.2     
   2 C2             0.0021    -0.0041     0.0020 C.3     
   3 C3            -0.7241    -0.5171    -1.2431 C.3     
   4 O4             1.0197     2.1211     0.0037 O.2     
   5 O5            -1.1898     2.1580     0.0194 O.3     
   6 C6            -0.8113    -2.0207    -1.1900 C.ar    
   7 C7            -1.8983    -2.6278    -0.5884 C.ar    
   8 C8            -1.9814    -4.0054    -0.5380 C.ar    
   9 C9            -0.9713    -4.7813    -1.0925 C.ar    
  10 C10            0.1192    -4.1682    -1.6960 C.ar    
  11 C11            0.1932    -2.7901    -1.7480 C.ar    
  12 N12           -1.0519    -6.1748    -1.0428 N.3     
  13 C13            0.1154    -6.7927    -1.6847 C.3     
  14 C14           -0.0755    -8.3100    -1.7414 C.3     
  15 C15           -0.2456    -8.8516    -0.3193 C.3     
  16 C16           -1.4383    -8.1570     0.3437 C.3     
  17 C17           -1.2079    -6.6440     0.3399 C.3     
  18 C18           -0.4975   -10.3598    -0.3732 C.3     
  19 N19           -0.5413   -10.8966     0.9892 N.pl3   
  20 C20           -0.7596   -12.2539     1.1947 C.ar    
  21 C21           -0.9358   -13.0971     0.1020 C.ar    
  22 C22           -1.1521   -14.4454     0.3210 C.ar    
  23 C23           -1.1853   -14.9073     1.6304 C.ar    
  24 C24           -1.0027   -14.0145     2.6670 C.ar    
  25 N25           -0.7927   -12.7337     2.4282 N.ar    
  26 C26            2.0717    -0.5994     1.1419 C.2     
  27 C27            3.4708    -1.0727     1.1260 C.ar    
  28 C28            3.7474    -2.4392     1.2215 C.ar    
  29 C29            5.0509    -2.8800     1.2062 C.ar    
  30 C30            6.0977    -1.9616     1.0952 C.ar    
  31 C31            5.8214    -0.5954     1.0001 C.ar    
  32 C32            4.5179    -0.1546     1.0096 C.ar    
  33 O33            1.5354    -0.3233     2.1974 O.2     
  34 N34            1.3897    -0.4735    -0.0138 N.am    
  35 C35            4.2197     1.3186     0.9008 C.3     
  36 C36            2.6182    -3.4299     1.3417 C.3     
  37 C37            7.4975    -2.4352     1.0787 C.2     
  38 N38            7.8873    -3.6884     1.1607 N.2     
  39 C39            9.2220    -3.7386     1.1141 C.2     
  40 C40            9.6917    -2.4780     0.9990 C.2     
  41 N41            8.6065    -1.6472     0.9700 N.pl3   
  42 H42           -0.4983    -0.3791     0.8948 H       
  43 H43           -1.7288    -0.0959    -1.2772 H       
  44 H44           -0.1736    -0.2164    -2.1345 H       
  45 H45           -1.1523     3.1243     0.0245 H       
  46 H46           -2.6831    -2.0240    -0.1572 H       
  47 H47           -2.8305    -4.4790    -0.0677 H       
  48 H48            0.9062    -4.7685    -2.1281 H       
  49 H49            1.0385    -2.3127    -2.2213 H       
  50 H50            0.2226    -6.4021    -2.6967 H       
  51 H51            1.0115    -6.5606    -1.1092 H       
  52 H52           -0.9638    -8.5434    -2.3284 H       
  53 H53            0.7981    -8.7697    -2.2037 H       
  54 H54            0.6581    -8.6527     0.2568 H       
  55 H55           -2.3480    -8.3879    -0.2105 H       
  56 H56           -1.5385    -8.5072     1.3710 H       
  57 H57           -0.3056    -6.4127     0.9059 H       
  58 H58           -2.0619    -6.1455     0.7984 H       
  59 H59           -1.4485   -10.5517    -0.8701 H       
  60 H60            0.3065   -10.8428    -0.9284 H       
  61 H61           -0.4180   -10.3049     1.7478 H       
  62 H62           -0.9043   -12.7040    -0.9034 H       
  63 H63           -1.2925   -15.1238    -0.5075 H       
  64 H64           -1.3525   -15.9544     1.8353 H       
  65 H65           -1.0277   -14.3695     3.6867 H       
  66 H66            5.2646    -3.9360     1.2803 H       
  67 H67            6.6309     0.1144     0.9147 H       
  68 H68            1.8177    -0.6938    -0.8559 H       
  69 H69            4.1881     1.7575     1.8981 H       
  70 H70            4.9993     1.8047     0.3144 H       
  71 H71            3.2560     1.4590     0.4114 H       
  72 H72            2.3067    -3.7483     0.3469 H       
  73 H73            2.9540    -4.2961     1.9119 H       
  74 H74            1.7772    -2.9620     1.8534 H       
  75 H75            9.8226    -4.6349     1.1611 H       
  76 H76           10.7286    -2.1823     0.9373 H       
  77 H77            8.6218    -0.6807     0.8899 H       
@<TRIPOS>BOND
   1    1    2 1
   2    1    4 2
   3    1    5 1
   4    2    3 1
   5    2   34 1
   6    2   42 1
   7    3    6 1
   8    3   43 1
   9    3   44 1
  10    5   45 1
  11    6    7 ar
  12    6   11 ar
  13    7    8 ar
  14    7   46 1
  15    8    9 ar
  16    8   47 1
  17    9   10 ar
  18    9   12 1
  19   10   11 ar
  20   10   48 1
  21   11   49 1
  22   12   13 1
  23   12   17 1
  24   13   14 1
  25   13   50 1
  26   13   51 1
  27   14   15 1
  28   14   52 1
  29   14   53 1
  30   15   16 1
  31   15   18 1
  32   15   54 1
  33   16   17 1
  34   16   55 1
  35   16   56 1
  36   17   57 1
  37   17   58 1
  38   18   19 1
  39   18   59 1
  40   18   60 1
  41   19   20 1
  42   19   61 1
  43   20   21 ar
  44   20   25 ar
  45   21   22 ar
  46   21   62 1
  47   22   23 ar
  48   22   63 1
  49   23   24 ar
  50   23   64 1
  51   24   25 ar
  52   24   65 1
  53   26   27 1
  54   26   33 2
  55   26   34 am
  56   27   28 ar
  57   27   32 ar
  58   28   29 ar
  59   28   36 1
  60   29   30 ar
  61   29   66 1
  62   30   31 ar
  63   30   37 1
  64   31   32 ar
  65   31   67 1
  66   32   35 1
  67   34   68 1
  68   35   69 1
  69   35   70 1
  70   35   71 1
  71   36   72 1
  72   36   73 1
  73   36   74 1
  74   37   38 2
  75   37   41 1
  76   38   39 1
  77   39   40 2
  78   39   75 1
  79   40   41 1
  80   40   76 1
  81   41   77 1

#	End of record

