#	Name: ASD07930975
#	Creating user name:	WinNT
#	Creation time:	15. 06. 2019 21:13

#	Modifying user name:	WinNT
#	Modification time:	15. 06. 2019 21:13

#	Program:	/corina/corina34_cracker 3.40 0067  02.08.2006

@<TRIPOS>MOLECULE
ASD07930975
  56   61    0    0    0
SMALL
NO_CHARGES


@<TRIPOS>ATOM
   1 C1             0.0047     1.3967     0.0115 C.ar    
   2 N2             0.0176    -0.0039     0.0033 N.am    
   3 N3            -0.0735    -0.8097     1.1411 N.2     
   4 C4            -0.0352    -2.0721     0.8247 C.2     
   5 C5             0.0926    -2.1539    -0.6482 C.2     
   6 C6             0.1141    -0.7681    -1.1060 C.2     
   7 O7             0.2083    -0.3783    -2.2585 O.2     
   8 C8            -0.0878    -3.3453     1.5685 C.ar    
   9 C9            -0.0142    -4.5446     0.8405 C.ar    
  10 N10            0.1049    -4.5233    -0.5384 N.pl3   
  11 C11            0.1546    -3.3860    -1.2504 C.2     
  12 C12           -0.2065    -3.3732     2.9541 C.ar    
  13 C13           -0.2518    -4.5852     3.6122 C.ar    
  14 C14           -0.1795    -5.7697     2.8972 C.ar    
  15 C15           -0.0621    -5.7552     1.5227 C.ar    
  16 C16            0.1790    -5.7997    -1.2536 C.3     
  17 C17            1.1993     2.1035     0.0136 C.ar    
  18 C18            1.1835     3.4850     0.0213 C.ar    
  19 C19           -0.0203     4.1649     0.0268 C.ar    
  20 C20           -1.2135     3.4654     0.0248 C.ar    
  21 C21           -1.2055     2.0828     0.0118 C.ar    
  22 F22           -2.3708     1.3994     0.0097 F       
  23 C23           -1.0609    -5.9639    -2.1354 C.3     
  24 C24            1.4317    -5.8205    -2.1338 C.3     
  25 C25            1.4698    -7.1322    -2.9227 C.3     
  26 C26            0.1925    -7.2579    -3.7562 C.3     
  27 N27           -0.9770    -7.2335    -2.8685 N.3     
  28 C28           -2.1524    -7.4779    -3.5824 C.ar    
  29 C29           -2.4862    -6.6786    -4.6684 C.ar    
  30 C30           -3.6489    -6.9233    -5.3724 C.ar    
  31 C31           -4.4804    -7.9626    -4.9973 C.ar    
  32 C32           -4.1511    -8.7603    -3.9167 C.ar    
  33 C33           -2.9873    -8.5244    -3.2116 C.ar    
  34 H34            0.2479    -3.4420    -2.3249 H       
  35 H35           -0.2625    -2.4504     3.5124 H       
  36 H36           -0.3436    -4.6105     4.6880 H       
  37 H37           -0.2155    -6.7135     3.4209 H       
  38 H38           -0.0066    -6.6850     0.9762 H       
  39 H39            0.2251    -6.6176    -0.5345 H       
  40 H40            2.1405     1.5738     0.0097 H       
  41 H41            2.1131     4.0348     0.0232 H       
  42 H42           -0.0290     5.2449     0.0331 H       
  43 H43           -2.1521     3.9996     0.0295 H       
  44 H44           -1.9538    -5.9638    -1.5103 H       
  45 H45           -1.1142    -5.1379    -2.8446 H       
  46 H46            1.4042    -4.9794    -2.8265 H       
  47 H47            2.3195    -5.7473    -1.5056 H       
  48 H48            2.3370    -7.1346    -3.5831 H       
  49 H49            1.5366    -7.9715    -2.2304 H       
  50 H50            0.1333    -6.4258    -4.4578 H       
  51 H51            0.2100    -8.1976    -4.3082 H       
  52 H52           -1.8374    -5.8666    -4.9617 H       
  53 H53           -3.9092    -6.3021    -6.2166 H       
  54 H54           -5.3893    -8.1516    -5.5493 H       
  55 H55           -4.8027    -9.5711    -3.6264 H       
  56 H56           -2.7305    -9.1479    -2.3680 H       
@<TRIPOS>BOND
   1    1    2 1
   2    1   17 ar
   3    1   21 ar
   4    2    3 1
   5    2    6 am
   6    3    4 2
   7    4    5 1
   8    4    8 1
   9    5    6 1
  10    5   11 2
  11    6    7 2
  12    8    9 ar
  13    8   12 ar
  14    9   10 1
  15    9   15 ar
  16   10   11 1
  17   10   16 1
  18   11   34 1
  19   12   13 ar
  20   12   35 1
  21   13   14 ar
  22   13   36 1
  23   14   15 ar
  24   14   37 1
  25   15   38 1
  26   16   23 1
  27   16   24 1
  28   16   39 1
  29   17   18 ar
  30   17   40 1
  31   18   19 ar
  32   18   41 1
  33   19   20 ar
  34   19   42 1
  35   20   21 ar
  36   20   43 1
  37   21   22 1
  38   23   27 1
  39   23   44 1
  40   23   45 1
  41   24   25 1
  42   24   46 1
  43   24   47 1
  44   25   26 1
  45   25   48 1
  46   25   49 1
  47   26   27 1
  48   26   50 1
  49   26   51 1
  50   27   28 1
  51   28   29 ar
  52   28   33 ar
  53   29   30 ar
  54   29   52 1
  55   30   31 ar
  56   30   53 1
  57   31   32 ar
  58   31   54 1
  59   32   33 ar
  60   32   55 1
  61   33   56 1

#	End of record

