#	Name: ASD01900404
#	Creating user name:	WinNT
#	Creation time:	15. 06. 2019 19:51

#	Modifying user name:	WinNT
#	Modification time:	15. 06. 2019 19:51

#	Program:	/corina/corina34_cracker 3.40 0067  02.08.2006

@<TRIPOS>MOLECULE
ASD01900404
  32   34    0    0    0
SMALL
NO_CHARGES


@<TRIPOS>ATOM
   1 C1             0.3995     3.9874     0.6060 C.ar    
   2 C2             0.8403     5.0259     1.4485 C.ar    
   3 C3             2.2071     5.2842     1.5464 C.ar    
   4 C4             3.0741     4.5039     0.8070 C.ar    
   5 C5             2.5693     3.4959    -0.0040 C.ar    
   6 N6             1.2785     3.2655    -0.0850 N.ar    
   7 N7            -1.4102     4.9110     1.5498 N.2     
   8 N8            -0.2751     5.5808     2.0181 N.pl3   
   9 C9            -1.0612     3.9701     0.7132 C.2     
  10 N10           -1.9266     3.0976     0.0457 N.pl3   
  11 C11           -3.3089     3.2652     0.1556 C.ar    
  12 C12           -3.8419     4.5297     0.3734 C.ar    
  13 C13           -5.2090     4.6917     0.4816 C.ar    
  14 C14           -6.0473     3.5972     0.3739 C.ar    
  15 C15           -5.5203     2.3371     0.1571 C.ar    
  16 C16           -4.1545     2.1686     0.0417 C.ar    
  17 C17           -6.4379     1.1474     0.0404 C.3     
  18 C18           -5.7880     6.0629     0.7179 C.3     
  19 H19            2.5778     6.0737     2.1833 H       
  20 H20            4.1389     4.6770     0.8589 H       
  21 H21            3.2520     2.8891    -0.5802 H       
  22 H22           -0.2774     6.3200     2.6461 H       
  23 H23           -1.5669     2.3760    -0.4936 H       
  24 H24           -3.1877     5.3848     0.4584 H       
  25 H25           -7.1161     3.7267     0.4597 H       
  26 H26           -3.7439     1.1850    -0.1324 H       
  27 H27           -6.7222     1.0088    -1.0027 H       
  28 H28           -5.9237     0.2555     0.3985 H       
  29 H29           -7.3314     1.3174     0.6411 H       
  30 H30           -5.9903     6.5418    -0.2401 H       
  31 H31           -6.7161     5.9730     1.2824 H       
  32 H32           -5.0763     6.6655     1.2823 H       
@<TRIPOS>BOND
   1    1    2 ar
   2    1    6 ar
   3    1    9 1
   4    2    3 ar
   5    2    8 1
   6    3    4 ar
   7    3   19 1
   8    4    5 ar
   9    4   20 1
  10    5    6 ar
  11    5   21 1
  12    7    8 1
  13    7    9 2
  14    8   22 1
  15    9   10 1
  16   10   11 1
  17   10   23 1
  18   11   12 ar
  19   11   16 ar
  20   12   13 ar
  21   12   24 1
  22   13   14 ar
  23   13   18 1
  24   14   15 ar
  25   14   25 1
  26   15   16 ar
  27   15   17 1
  28   16   26 1
  29   17   27 1
  30   17   28 1
  31   17   29 1
  32   18   30 1
  33   18   31 1
  34   18   32 1

#	End of record

