#	Name: ASD03731406
#	Creating user name:	WinNT
#	Creation time:	15. 06. 2019 20:45

#	Modifying user name:	WinNT
#	Modification time:	15. 06. 2019 20:45

#	Program:	/corina/corina34_cracker 3.40 0067  02.08.2006

@<TRIPOS>MOLECULE
ASD03731406
  61   65    0    0    0
SMALL
NO_CHARGES


@<TRIPOS>ATOM
   1 O1            -2.2826     1.7605     0.5384 O.3     
   2 C2            -2.6811     0.3795     0.6227 C.3     
   3 O3            -1.4684    -0.3446     0.3440 O.3     
   4 C4            -0.4521     0.4813     0.7314 C.ar    
   5 C5            -0.9531     1.7757     0.8497 C.ar    
   6 C6             0.8816     0.2288     0.9978 C.ar    
   7 C7             1.7314     1.2613     1.3830 C.ar    
   8 C8             1.2213     2.5516     1.4897 C.ar    
   9 C9            -0.1095     2.8055     1.2308 C.ar    
  10 O10            3.0564     1.2257     1.7042 O.3     
  11 C11            2.3721     3.4358     1.8895 C.3     
  12 C12            3.6012     2.5568     1.6210 C.3     
  13 N13            2.3543     5.7192     1.9893 N.am    
  14 C14            2.4115     4.7105     1.0969 C.2     
  15 C15            2.2918     3.8624     3.3253 C.ar    
  16 C16            2.2305     3.1784     4.5188 C.ar    
  17 C17            2.1627     3.8735     5.7131 C.ar    
  18 C18            2.1565     5.2564     5.7050 C.ar    
  19 C19            2.2168     5.9462     4.5121 C.ar    
  20 C20            2.2856     5.2548     3.3050 C.ar    
  21 O21            2.4815     4.8126    -0.1096 O.2     
  22 C22            2.3639     7.1374     1.6222 C.3     
  23 C23            0.9270     7.6204     1.4151 C.3     
  24 C24            0.9370     9.1015     1.0317 C.3     
  25 N25           -0.4426     9.5652     0.8328 N.3     
  26 C26           -1.1949     9.5358     2.0942 C.3     
  27 C27           -2.6924     9.6362     1.7974 C.3     
  28 C28           -3.4822     9.4711     3.0973 C.3     
  29 C29           -0.4660    10.9077     0.2370 C.3     
  30 C30           -0.1268    10.8110    -1.2518 C.3     
  31 C31           -0.1370    12.2109    -1.8692 C.3     
  32 H32           -3.0449     0.1464     1.6234 H       
  33 H33           -3.4419     0.1542    -0.1246 H       
  34 H34            1.2658    -0.7765     0.9066 H       
  35 H35           -0.4944     3.8102     1.3251 H       
  36 H36            4.3626     2.7119     2.3855 H       
  37 H37            4.0046     2.7486     0.6267 H       
  38 H38            2.2351     2.0984     4.5227 H       
  39 H39            2.1143     3.3374     6.6494 H       
  40 H40            2.1038     5.7990     6.6373 H       
  41 H41            2.2106     7.0262     4.5140 H       
  42 H42            2.8303     7.7160     2.4196 H       
  43 H43            2.9284     7.2700     0.6992 H       
  44 H44            0.4606     7.0418     0.6177 H       
  45 H45            0.3625     7.4878     2.3380 H       
  46 H46            1.4034     9.6801     1.8291 H       
  47 H47            1.5015     9.2341     0.1087 H       
  48 H48           -0.9900     8.6020     2.6177 H       
  49 H49           -0.8910    10.3763     2.7181 H       
  50 H50           -2.9117    10.6103     1.3602 H       
  51 H51           -2.9774     8.8512     1.0969 H       
  52 H52           -4.5491     9.5426     2.8859 H       
  53 H53           -3.2629     8.4970     3.5345 H       
  54 H54           -3.1972    10.2561     3.7978 H       
  55 H55           -1.4593    11.3407     0.3559 H       
  56 H56            0.2681    11.5398     0.7366 H       
  57 H57            0.8622    10.3685    -1.3711 H       
  58 H58           -0.8668    10.1874    -1.7533 H       
  59 H59           -1.1260    12.6534    -1.7499 H       
  60 H60            0.6030    12.8346    -1.3677 H       
  61 H61            0.1047    12.1420    -2.9298 H       
@<TRIPOS>BOND
   1    1    2 1
   2    1    5 1
   3    2    3 1
   4    2   32 1
   5    2   33 1
   6    3    4 1
   7    4    5 ar
   8    4    6 ar
   9    5    9 ar
  10    6    7 ar
  11    6   34 1
  12    7    8 ar
  13    7   10 1
  14    8    9 ar
  15    8   11 1
  16    9   35 1
  17   10   12 1
  18   11   12 1
  19   11   14 1
  20   11   15 1
  21   12   36 1
  22   12   37 1
  23   13   14 am
  24   13   20 1
  25   13   22 1
  26   14   21 2
  27   15   16 ar
  28   15   20 ar
  29   16   17 ar
  30   16   38 1
  31   17   18 ar
  32   17   39 1
  33   18   19 ar
  34   18   40 1
  35   19   20 ar
  36   19   41 1
  37   22   23 1
  38   22   42 1
  39   22   43 1
  40   23   24 1
  41   23   44 1
  42   23   45 1
  43   24   25 1
  44   24   46 1
  45   24   47 1
  46   25   26 1
  47   25   29 1
  48   26   27 1
  49   26   48 1
  50   26   49 1
  51   27   28 1
  52   27   50 1
  53   27   51 1
  54   28   52 1
  55   28   53 1
  56   28   54 1
  57   29   30 1
  58   29   55 1
  59   29   56 1
  60   30   31 1
  61   30   57 1
  62   30   58 1
  63   31   59 1
  64   31   60 1
  65   31   61 1

#	End of record

