#	Name: ASD01900747
#	Creating user name:	WinNT
#	Creation time:	15. 06. 2019 19:52

#	Modifying user name:	WinNT
#	Modification time:	15. 06. 2019 19:52

#	Program:	/corina/corina34_cracker 3.40 0067  02.08.2006

@<TRIPOS>MOLECULE
ASD01900747
  55   59    0    0    0
SMALL
NO_CHARGES


@<TRIPOS>ATOM
   1 C1            -1.3312     2.1752    -0.5590 C.ar    
   2 C2            -1.3830     0.7947    -0.4113 C.ar    
   3 C3            -2.5771     0.1169    -0.5493 C.ar    
   4 C4            -3.7431     0.8134    -0.8384 C.ar    
   5 C5            -3.6879     2.2054    -0.9913 C.ar    
   6 O6            -4.9192     0.1607    -0.9641 O.3     
   7 C7            -5.9936     0.7411    -1.5252 C.2     
   8 C8            -6.0861     2.0781    -1.7216 C.2     
   9 C9            -4.9480     2.9224    -1.3135 C.2     
  10 C10           -7.1206    -0.1149    -1.9457 C.2     
  11 N11           -8.2257     0.4677    -2.5212 N.2     
  12 C12           -9.4131    -0.0802    -2.4178 C.2     
  13 C13           -9.4432    -1.3594    -1.6699 C.3     
  14 C14           -8.2517    -2.2288    -2.1980 C.3     
  15 C15           -7.0366    -1.4606    -1.7589 C.2     
  16 C16           -2.4862     2.8852    -0.8446 C.ar    
  17 C17          -10.6339    -2.2187    -1.5761 C.2     
  18 C18          -10.3942    -3.5026    -1.2867 C.2     
  19 S19           -8.6199    -3.7022    -1.1767 S.3     
  20 O20           -0.1480     2.8301    -0.4178 O.3     
  21 C21            1.0014     2.0358    -0.1178 C.3     
  22 C22            2.2292     2.9407     0.0031 C.3     
  23 N23            2.0583     3.8478     1.1458 N.3     
  24 C24            3.2536     4.6780     1.3420 C.3     
  25 C25            1.7245     3.1009     2.3653 C.3     
  26 C26            1.4119     4.0827     3.4969 C.3     
  27 C27            2.6305     4.9771     3.7412 C.3     
  28 C28            2.9867     5.7068     2.4431 C.3     
  29 F29            2.3312     5.9133     4.7368 F       
  30 F30            3.7137     4.1907     4.1478 F       
  31 N31           -5.0428     4.2280    -1.2397 N.2     
  32 O32           -3.9622     4.9888    -0.7311 O.3     
  33 H33           -0.4799     0.2466    -0.1865 H       
  34 H34           -2.6047    -0.9564    -0.4327 H       
  35 H35           -6.9693     2.5140    -2.1648 H       
  36 H36          -10.2995     0.3661    -2.8439 H       
  37 H37           -9.1816    -1.1134    -0.6407 H       
  38 H38           -8.2752    -2.4117    -3.2723 H       
  39 H39           -6.1699    -1.9369    -1.3248 H       
  40 H40           -2.4506     3.9584    -0.9600 H       
  41 H41          -11.6331    -1.8389    -1.7300 H       
  42 H42          -11.1349    -4.2758    -1.1459 H       
  43 H43            0.8437     1.5097     0.8237 H       
  44 H44            1.1610     1.3115    -0.9165 H       
  45 H45            3.1181     2.3285     0.1549 H       
  46 H46            2.3417     3.5244    -0.9105 H       
  47 H47            4.0920     4.0447     1.6322 H       
  48 H48            3.4936     5.1946     0.4127 H       
  49 H49            0.8539     2.4721     2.1792 H       
  50 H50            2.5701     2.4751     2.6507 H       
  51 H51            0.5578     4.6996     3.2178 H       
  52 H52            1.1795     3.5281     4.4060 H       
  53 H53            3.8793     6.3126     2.5992 H       
  54 H54            2.1573     6.3493     2.1474 H       
  55 H55           -4.1251     5.9418    -0.7156 H       
@<TRIPOS>BOND
   1    1    2 ar
   2    1   20 1
   3    1   16 ar
   4    2    3 ar
   5    2   33 1
   6    3    4 ar
   7    3   34 1
   8    4    5 ar
   9    4    6 1
  10    5   16 ar
  11    5    9 1
  12    6    7 1
  13    7    8 2
  14    7   10 1
  15    8    9 1
  16    8   35 1
  17    9   31 2
  18   10   11 1
  19   10   15 2
  20   11   12 2
  21   12   13 1
  22   12   36 1
  23   13   14 1
  24   13   17 1
  25   13   37 1
  26   14   15 1
  27   14   19 1
  28   14   38 1
  29   15   39 1
  30   16   40 1
  31   17   18 2
  32   17   41 1
  33   18   19 1
  34   18   42 1
  35   20   21 1
  36   21   22 1
  37   21   43 1
  38   21   44 1
  39   22   23 1
  40   22   45 1
  41   22   46 1
  42   23   24 1
  43   23   25 1
  44   24   28 1
  45   24   47 1
  46   24   48 1
  47   25   26 1
  48   25   49 1
  49   25   50 1
  50   26   27 1
  51   26   51 1
  52   26   52 1
  53   27   28 1
  54   27   29 1
  55   27   30 1
  56   28   53 1
  57   28   54 1
  58   31   32 1
  59   32   55 1

#	End of record

