#	Name: ASD01884684
#	Creating user name:	WinNT
#	Creation time:	15. 06. 2019 19:48

#	Modifying user name:	WinNT
#	Modification time:	15. 06. 2019 19:48

#	Program:	/corina/corina34_cracker 3.40 0067  02.08.2006

@<TRIPOS>MOLECULE
ASD01884684
  59   62    0    0    0
SMALL
NO_CHARGES


@<TRIPOS>ATOM
   1 C1            -1.0070     0.7407     0.3269 C.2     
   2 C2            -0.6947    -0.6147     0.2575 C.2     
   3 C3            -1.7330    -1.5455     0.2025 C.2     
   4 C4            -3.0239    -1.1278     0.2163 C.2     
   5 N5            -3.3354     0.1894     0.2837 N.am    
   6 C6            -2.3722     1.1285     0.3447 C.2     
   7 O7            -2.6719     2.3086     0.4051 O.2     
   8 C8            -4.7422     0.5978     0.2959 C.3     
   9 C9             0.0310     1.7254     0.3853 C.1     
  10 N10            0.8545     2.5066     0.4316 N.1     
  11 C11            0.7420    -1.0691     0.2416 C.3     
  12 C12           -5.2416     0.6640     1.7406 C.3     
  13 C13           -6.7109     1.0906     1.7533 C.3     
  14 C14           -7.5611     0.0112     1.0803 C.3     
  15 C15           -7.1751     1.2776     3.1991 C.3     
  16 N16            1.1693    -1.3898     1.6100 N.3     
  17 C17            0.3791    -2.5339     2.1646 C.3     
  18 C18            0.5420    -3.6612     1.0984 C.3     
  19 N19            1.9498    -4.1097     1.2233 N.3     
  20 C20            2.5673    -3.2438     2.2768 C.3     
  21 C21            2.5877    -1.8213     1.6364 C.3     
  22 C22            1.3608    -3.0699     3.2674 C.3     
  23 C23            2.6613    -3.9726    -0.0546 C.3     
  24 C24            4.1140    -4.3236     0.1392 C.ar    
  25 C25            4.5168    -5.6454     0.1008 C.ar    
  26 C26            5.8494    -5.9673     0.2785 C.ar    
  27 C27            6.7792    -4.9673     0.4943 C.ar    
  28 C28            6.3765    -3.6455     0.5318 C.ar    
  29 C29            5.0446    -3.3232     0.3497 C.ar    
  30 H30           -1.5086    -2.6006     0.1483 H       
  31 H31           -3.8179    -1.8585     0.1725 H       
  32 H32           -4.8396     1.5796    -0.1675 H       
  33 H33           -5.3359    -0.1273    -0.2608 H       
  34 H34            0.8357    -1.9558    -0.3855 H       
  35 H35            1.3704    -0.2733    -0.1582 H       
  36 H36           -5.1442    -0.3177     2.2040 H       
  37 H37           -4.6479     1.3891     2.2973 H       
  38 H38           -6.8212     2.0301     1.2119 H       
  39 H39           -8.6079     0.3151     1.0893 H       
  40 H40           -7.2304    -0.1221     0.0502 H       
  41 H41           -7.4508    -0.9284     1.6217 H       
  42 H42           -6.5694     2.0466     3.6786 H       
  43 H43           -8.2219     1.5815     3.2082 H       
  44 H44           -7.0648     0.3381     3.7406 H       
  45 H45           -0.6412    -2.3074     2.4741 H       
  46 H46           -0.1383    -4.4856     1.3122 H       
  47 H47            0.3576    -3.2667     0.0992 H       
  48 H48            3.5093    -3.5965     2.6968 H       
  49 H49            2.9881    -1.8678     0.6237 H       
  50 H50            3.1794    -1.1396     2.2474 H       
  51 H51            1.5622    -2.3273     4.0394 H       
  52 H52            1.0312    -4.0192     3.6897 H       
  53 H53            2.2200    -4.6452    -0.7901 H       
  54 H54            2.5798    -2.9445    -0.4073 H       
  55 H55            3.7904    -6.4266    -0.0678 H       
  56 H56            6.1640    -7.0000     0.2492 H       
  57 H57            7.8201    -5.2189     0.6338 H       
  58 H58            7.1029    -2.8643     0.7007 H       
  59 H59            4.7300    -2.2905     0.3790 H       
@<TRIPOS>BOND
   1    1    2 2
   2    1    9 1
   3    1    6 1
   4    2    3 1
   5    2   11 1
   6    3    4 2
   7    3   30 1
   8    4    5 1
   9    4   31 1
  10    5    8 1
  11    5    6 am
  12    6    7 2
  13    8   12 1
  14    8   32 1
  15    8   33 1
  16    9   10 3
  17   11   16 1
  18   11   34 1
  19   11   35 1
  20   12   13 1
  21   12   36 1
  22   12   37 1
  23   13   14 1
  24   13   15 1
  25   13   38 1
  26   14   39 1
  27   14   40 1
  28   14   41 1
  29   15   42 1
  30   15   43 1
  31   15   44 1
  32   16   17 1
  33   16   21 1
  34   17   18 1
  35   17   22 1
  36   17   45 1
  37   18   19 1
  38   18   46 1
  39   18   47 1
  40   19   20 1
  41   19   23 1
  42   20   21 1
  43   20   22 1
  44   20   48 1
  45   21   49 1
  46   21   50 1
  47   22   51 1
  48   22   52 1
  49   23   24 1
  50   23   53 1
  51   23   54 1
  52   24   25 ar
  53   24   29 ar
  54   25   26 ar
  55   25   55 1
  56   26   27 ar
  57   26   56 1
  58   27   28 ar
  59   27   57 1
  60   28   29 ar
  61   28   58 1
  62   29   59 1

#	End of record

