#	Name: ASD01814252
#	Creating user name:	WinNT
#	Creation time:	15. 06. 2019 19:32

#	Modifying user name:	WinNT
#	Modification time:	15. 06. 2019 19:32

#	Program:	/corina/corina34_cracker 3.40 0067  02.08.2006

@<TRIPOS>MOLECULE
ASD01814252
  49   53    0    0    0
SMALL
NO_CHARGES


@<TRIPOS>ATOM
   1 C1            -0.0154     1.3855     0.0735 C.ar    
   2 C2             0.0023    -0.0043     0.0151 C.ar    
   3 C3             1.1792    -0.6888    -0.0519 C.ar    
   4 C4             2.3939     0.0139    -0.0626 C.ar    
   5 C5             2.3719     1.4287    -0.0031 C.ar    
   6 C6             1.1469     2.1000     0.0651 C.ar    
   7 C7             3.6273    -0.6672    -0.1318 C.ar    
   8 C8             4.8011     0.0084    -0.1422 C.ar    
   9 C9             4.8351     1.4105    -0.0851 C.ar    
  10 C10            3.6407     2.1510    -0.0147 C.ar    
  11 C11            6.1016     2.1530    -0.0964 C.2     
  12 N12            6.0337     3.5033    -0.0385 N.am    
  13 C13            4.8306     4.1305     0.0276 C.2     
  14 N14            3.6968     3.4922     0.0378 N.2     
  15 C15            3.6391    -2.1729    -0.1947 C.3     
  16 C16            3.4724    -2.6172    -1.6250 C.ar    
  17 C17            4.5854    -2.8054    -2.4235 C.ar    
  18 C18            4.4352    -3.2126    -3.7350 C.ar    
  19 C19            3.1663    -3.4328    -4.2507 C.ar    
  20 C20            2.0511    -3.2433    -3.4475 C.ar    
  21 C21            2.2069    -2.8414    -2.1350 C.ar    
  22 O22            7.1724     1.5757    -0.1551 O.2     
  23 O23            3.0159    -3.8331    -5.5407 O.3     
  24 C24            7.2127     4.2597    -0.0463 C.ar    
  25 C25            1.6801    -4.0407    -6.0040 C.3     
  26 C26            8.0891     4.2091     1.0293 C.ar    
  27 N27            9.1993     4.9198     1.0259 N.ar    
  28 C28            9.5217     5.6999     0.0128 C.ar    
  29 C29            8.6998     5.8027    -1.0944 C.ar    
  30 C30            7.5256     5.0693    -1.1356 C.ar    
  31 H31           -0.9609     1.9053     0.1215 H       
  32 H32           -0.9302    -0.5491     0.0234 H       
  33 H33            1.1769    -1.7678    -0.0964 H       
  34 H34            1.1210     3.1787     0.1104 H       
  35 H35            5.7286    -0.5422    -0.1952 H       
  36 H36            4.8144     5.2094     0.0729 H       
  37 H37            4.5872    -2.5453     0.1933 H       
  38 H38            2.8201    -2.5681     0.4063 H       
  39 H39            5.5730    -2.6335    -2.0216 H       
  40 H40            5.3049    -3.3591    -4.3583 H       
  41 H41            1.0622    -3.4141    -3.8467 H       
  42 H42            1.3391    -2.6938    -1.5093 H       
  43 H43            1.2019    -4.8121    -5.4004 H       
  44 H44            1.1172    -3.1112    -5.9182 H       
  45 H45            1.7023    -4.3571    -7.0468 H       
  46 H46            7.8589     3.5814     1.8774 H       
  47 H47           10.4404     6.2666     0.0485 H       
  48 H48            8.9722     6.4445    -1.9192 H       
  49 H49            6.8650     5.1299    -1.9878 H       
@<TRIPOS>BOND
   1    1    2 ar
   2    1    6 ar
   3    1   31 1
   4    2    3 ar
   5    2   32 1
   6    3    4 ar
   7    3   33 1
   8    4    5 ar
   9    4    7 ar
  10    5    6 ar
  11    5   10 ar
  12    6   34 1
  13    7    8 ar
  14    7   15 1
  15    8    9 ar
  16    8   35 1
  17    9   10 ar
  18    9   11 1
  19   10   14 1
  20   11   12 am
  21   11   22 2
  22   12   13 1
  23   12   24 1
  24   13   14 2
  25   13   36 1
  26   15   16 1
  27   15   37 1
  28   15   38 1
  29   16   17 ar
  30   16   21 ar
  31   17   18 ar
  32   17   39 1
  33   18   19 ar
  34   18   40 1
  35   19   20 ar
  36   19   23 1
  37   20   21 ar
  38   20   41 1
  39   21   42 1
  40   23   25 1
  41   24   26 ar
  42   24   30 ar
  43   25   43 1
  44   25   44 1
  45   25   45 1
  46   26   27 ar
  47   26   46 1
  48   27   28 ar
  49   28   29 ar
  50   28   47 1
  51   29   30 ar
  52   29   48 1
  53   30   49 1

#	End of record

