#	Name: ASD01814513
#	Creating user name:	WinNT
#	Creation time:	15. 06. 2019 19:32

#	Modifying user name:	WinNT
#	Modification time:	15. 06. 2019 19:32

#	Program:	/corina/corina34_cracker 3.40 0067  02.08.2006

@<TRIPOS>MOLECULE
ASD01814513
  56   61    0    0    0
SMALL
NO_CHARGES


@<TRIPOS>ATOM
   1 C1            -0.0167     1.3807     0.0096 C.2     
   2 C2             0.0021    -0.0041     0.0020 C.2     
   3 N3             1.1953     2.0643     0.0017 N.pl3   
   4 N4             2.3427     1.5022    -0.0122 N.2     
   5 C5             2.5067     0.2039    -0.0208 C.2     
   6 C6             1.3109    -0.6710    -0.0150 C.2     
   7 C7             1.1528     3.5287     0.0095 C.3     
   8 C8             1.1516     4.0237     1.4329 C.ar    
   9 C9             2.3498     4.2848     2.0727 C.ar    
  10 C10            2.3546     4.7387     3.3760 C.ar    
  11 C11            1.1492     4.9338     4.0475 C.ar    
  12 C12           -0.0550     4.6692     3.3981 C.ar    
  13 C13           -0.0480     4.2206     2.0928 C.ar    
  14 C14            1.1480     5.4211     5.4488 C.ar    
  15 C15            3.6458    -0.7130    -0.0374 C.2     
  16 N16            3.1269    -1.9599    -0.0395 N.am    
  17 N17            1.7305    -1.9059    -0.0261 N.2     
  18 O18            4.8286    -0.4117    -0.0473 O.2     
  19 C19            3.9161    -3.1941    -0.0552 C.3     
  20 C20            3.5967    -4.0217     1.1935 C.3     
  21 C21            4.3679    -5.3435     1.1275 C.3     
  22 C22            3.9996    -6.0763    -0.1651 C.3     
  23 O23            4.2931    -5.2395    -1.2857 O.3     
  24 C24            3.5652    -4.0099    -1.3022 C.3     
  25 S25           -1.6405    -0.6242     0.0150 S.3     
  26 C26           -2.2972     1.0047     0.0302 C.2     
  27 C27           -1.3155     1.8976     0.0305 C.2     
  28 C28            2.3459     5.6912     6.1159 C.ar    
  29 C29            2.2993     6.1434     7.4189 C.ar    
  30 N30            1.1456     6.3204     8.0333 N.ar    
  31 C31           -0.0074     6.0772     7.4396 C.ar    
  32 C32           -0.0517     5.6281     6.1359 C.ar    
  33 C33           -1.2931     6.2981     8.1939 C.3     
  34 H34            2.0271     3.9203    -0.5106 H       
  35 H35            0.2479     3.8686    -0.4942 H       
  36 H36            3.2834     4.1328     1.5514 H       
  37 H37            3.2907     4.9419     3.8747 H       
  38 H38           -0.9920     4.8187     3.9138 H       
  39 H39           -0.9807     4.0152     1.5885 H       
  40 H40            4.9778    -2.9474    -0.0670 H       
  41 H41            3.8961    -3.4689     2.0839 H       
  42 H42            2.5266    -4.2255     1.2320 H       
  43 H43            5.4389    -5.1413     1.1391 H       
  44 H44            4.1039    -5.9625     1.9850 H       
  45 H45            4.5776    -6.9976    -0.2381 H       
  46 H46            2.9358    -6.3141    -0.1577 H       
  47 H47            2.4958    -4.2206    -1.3097 H       
  48 H48            3.8303    -3.4425    -2.1943 H       
  49 H49           -3.3500     1.2453     0.0414 H       
  50 H50           -1.5085     2.9602     0.0394 H       
  51 H51            3.2941     5.5479     5.6191 H       
  52 H52            3.2198     6.3549     7.9427 H       
  53 H53           -0.9990     5.4311     5.6561 H       
  54 H54           -1.6342     7.3217     8.0387 H       
  55 H55           -2.0510     5.6037     7.8313 H       
  56 H56           -1.1242     6.1288     9.2574 H       
@<TRIPOS>BOND
   1    1    2 2
   2    1    3 1
   3    1   27 1
   4    2   25 1
   5    2    6 1
   6    3    4 1
   7    3    7 1
   8    4    5 2
   9    5    6 1
  10    5   15 1
  11    6   17 2
  12    7    8 1
  13    7   34 1
  14    7   35 1
  15    8    9 ar
  16    8   13 ar
  17    9   10 ar
  18    9   36 1
  19   10   11 ar
  20   10   37 1
  21   11   12 ar
  22   11   14 1
  23   12   13 ar
  24   12   38 1
  25   13   39 1
  26   14   28 ar
  27   14   32 ar
  28   15   16 am
  29   15   18 2
  30   16   17 1
  31   16   19 1
  32   19   20 1
  33   19   24 1
  34   19   40 1
  35   20   21 1
  36   20   41 1
  37   20   42 1
  38   21   22 1
  39   21   43 1
  40   21   44 1
  41   22   23 1
  42   22   45 1
  43   22   46 1
  44   23   24 1
  45   24   47 1
  46   24   48 1
  47   25   26 1
  48   26   27 2
  49   26   49 1
  50   27   50 1
  51   28   29 ar
  52   28   51 1
  53   29   30 ar
  54   29   52 1
  55   30   31 ar
  56   31   32 ar
  57   31   33 1
  58   32   53 1
  59   33   54 1
  60   33   55 1
  61   33   56 1

#	End of record

