#	Name: ASD03240164
#	Creating user name:	WinNT
#	Creation time:	15. 06. 2019 20:34

#	Modifying user name:	WinNT
#	Modification time:	15. 06. 2019 20:34

#	Program:	/corina/corina34_cracker 3.40 0067  02.08.2006

@<TRIPOS>MOLECULE
ASD03240164
  95  102    0    0    0
SMALL
NO_CHARGES


@<TRIPOS>ATOM
   1 C1            -0.0172     1.4160     0.0098 C.ar    
   2 C2             0.0021    -0.0041     0.0020 C.ar    
   3 C3             1.1946     2.1239     0.0021 C.ar    
   4 C4             2.3741     1.3944    -0.0132 C.ar    
   5 C5             2.3167    -0.0171    -0.0203 C.ar    
   6 N6             1.1631    -0.6586    -0.0127 N.ar    
   7 C7             3.5779    -0.7937    -0.0365 C.ar    
   8 C8             3.6833     2.0897    -0.0224 C.ar    
   9 C9             3.9288     3.1071    -0.9434 C.ar    
  10 C10            5.1495     3.7507    -0.9473 C.ar    
  11 C11            6.1285     3.3881    -0.0398 C.ar    
  12 C12            5.8908     2.3791     0.8761 C.ar    
  13 C13            4.6717     1.7325     0.8935 C.ar    
  14 C14            3.6626    -2.0059     0.6480 C.ar    
  15 C15            4.8400    -2.7251     0.6287 C.ar    
  16 C16            5.9351    -2.2460    -0.0678 C.ar    
  17 C17            5.8573    -1.0442    -0.7487 C.ar    
  18 C18            4.6837    -0.3185    -0.7413 C.ar    
  19 C19            7.2182    -3.0361    -0.0844 C.3     
  20 N20            7.2075    -3.9635    -1.2236 N.3     
  21 C21            8.5273    -4.5785    -1.4140 C.3     
  22 C22            8.5189    -5.4227    -2.6905 C.3     
  23 C23            7.4426    -6.5055    -2.5734 C.3     
  24 C24            6.0854    -5.8406    -2.3272 C.3     
  25 C25            6.1644    -4.9844    -1.0613 C.3     
  26 C26            7.3887    -7.3023    -3.8514 C.2     
  27 N27            8.0071    -8.4305    -4.0850 N.2     
  28 N28            7.7430    -8.8381    -5.2755 N.2     
  29 C29            6.9366    -7.9831    -5.8643 C.2     
  30 N30            6.6873    -6.9834    -4.9628 N.pl3   
  31 C31            6.3969    -8.0847    -7.2378 C.ar    
  32 N32            6.7312    -9.1257    -7.9902 N.ar    
  33 C33            6.2662    -9.2461    -9.2213 C.ar    
  34 C34            5.4200    -8.2686    -9.7241 C.ar    
  35 C35            5.0907    -7.1937    -8.9112 C.ar    
  36 N36            5.5854    -7.1355    -7.6871 N.ar    
  37 N37           -1.1677    -0.6568     0.0102 N.ar    
  38 C38           -2.3045     0.0121     0.0251 C.ar    
  39 N39           -2.3570     1.3427     0.0327 N.ar    
  40 C40           -1.2608     2.0729     0.0311 C.ar    
  41 N41           -3.4902    -0.6975     0.0327 N.3     
  42 C42           -4.6465     0.2094     0.0492 C.3     
  43 C43           -5.9362    -0.6115    -0.0232 C.3     
  44 N44           -5.9851    -1.5433     1.1122 N.3     
  45 C45           -4.8288    -2.4501     1.0958 C.3     
  46 C46           -3.5391    -1.6292     1.1681 C.3     
  47 C47           -7.2456    -2.2976     1.1203 C.3     
  48 C48           -7.1605    -3.4221     2.1543 C.3     
  49 N49           -8.4210    -4.1764     2.1624 N.3     
  50 C50           -8.2966    -5.4009     2.9642 C.3     
  51 C51           -9.5304    -3.3424     2.6436 C.3     
  52 H52            1.2083     3.2038     0.0074 H       
  53 H53            3.1653     3.3907    -1.6526 H       
  54 H54            5.3410     4.5388    -1.6605 H       
  55 H55            7.0824     3.8947    -0.0465 H       
  56 H56            6.6591     2.0997     1.5818 H       
  57 H57            4.4872     0.9448     1.6090 H       
  58 H58            2.8084    -2.3808     1.1924 H       
  59 H59            4.9069    -3.6637     1.1587 H       
  60 H60            6.7156    -0.6753    -1.2907 H       
  61 H61            4.6241     0.6195    -1.2732 H       
  62 H62            8.0635    -2.3545    -0.1788 H       
  63 H63            7.3090    -3.6012     0.8433 H       
  64 H64            9.2829    -3.7976    -1.5000 H       
  65 H65            8.7583    -5.2146    -0.5595 H       
  66 H66            8.3015    -4.7848    -3.5472 H       
  67 H67            9.4939    -5.8915    -2.8232 H       
  68 H68            7.6806    -7.1670    -1.7404 H       
  69 H69            5.8298    -5.2093    -3.1782 H       
  70 H70            5.3219    -6.6081    -2.2004 H       
  71 H71            6.4065    -5.6185    -0.2084 H       
  72 H72            5.2038    -4.4982    -0.8911 H       
  73 H73            6.1269    -6.2029    -5.0961 H       
  74 H74            6.5421   -10.0953    -9.8290 H       
  75 H75            5.0262    -8.3426   -10.7270 H       
  76 H76            4.4343    -6.4160    -9.2728 H       
  77 H77           -1.3157     3.1515     0.0377 H       
  78 H78           -4.6380     0.7929     0.9698 H       
  79 H79           -4.5942     0.8809    -0.8078 H       
  80 H80           -6.7958     0.0575     0.0181 H       
  81 H81           -5.9573    -1.1741    -0.9565 H       
  82 H82           -4.8811    -3.1216     1.9528 H       
  83 H83           -4.8374    -3.0336     0.1751 H       
  84 H84           -2.6795    -2.2982     1.1268 H       
  85 H85           -3.5180    -1.0666     2.1014 H       
  86 H86           -8.0674    -1.6292     1.3772 H       
  87 H87           -7.4199    -2.7246     0.1326 H       
  88 H88           -6.3387    -4.0905     1.8973 H       
  89 H89           -6.9862    -2.9950     3.1419 H       
  90 H90           -8.0397    -5.1386     3.9905 H       
  91 H91           -9.2438    -5.9402     2.9533 H       
  92 H92           -7.5140    -6.0325     2.5439 H       
  93 H93           -9.6449    -2.4776     1.9901 H       
  94 H94          -10.4515    -3.9253     2.6394 H       
  95 H95           -9.3182    -3.0056     3.6582 H       
@<TRIPOS>BOND
   1    1    2 ar
   2    1    3 ar
   3    1   40 ar
   4    2   37 ar
   5    2    6 ar
   6    3    4 ar
   7    3   52 1
   8    4    5 ar
   9    4    8 1
  10    5    6 ar
  11    5    7 1
  12    7   14 ar
  13    7   18 ar
  14    8    9 ar
  15    8   13 ar
  16    9   10 ar
  17    9   53 1
  18   10   11 ar
  19   10   54 1
  20   11   12 ar
  21   11   55 1
  22   12   13 ar
  23   12   56 1
  24   13   57 1
  25   14   15 ar
  26   14   58 1
  27   15   16 ar
  28   15   59 1
  29   16   17 ar
  30   16   19 1
  31   17   18 ar
  32   17   60 1
  33   18   61 1
  34   19   20 1
  35   19   62 1
  36   19   63 1
  37   20   21 1
  38   20   25 1
  39   21   22 1
  40   21   64 1
  41   21   65 1
  42   22   23 1
  43   22   66 1
  44   22   67 1
  45   23   24 1
  46   23   26 1
  47   23   68 1
  48   24   25 1
  49   24   69 1
  50   24   70 1
  51   25   71 1
  52   25   72 1
  53   26   27 2
  54   26   30 1
  55   27   28 1
  56   28   29 2
  57   29   30 1
  58   29   31 1
  59   30   73 1
  60   31   32 ar
  61   31   36 ar
  62   32   33 ar
  63   33   34 ar
  64   33   74 1
  65   34   35 ar
  66   34   75 1
  67   35   36 ar
  68   35   76 1
  69   37   38 ar
  70   38   39 ar
  71   38   41 1
  72   39   40 ar
  73   40   77 1
  74   41   42 1
  75   41   46 1
  76   42   43 1
  77   42   78 1
  78   42   79 1
  79   43   44 1
  80   43   80 1
  81   43   81 1
  82   44   45 1
  83   44   47 1
  84   45   46 1
  85   45   82 1
  86   45   83 1
  87   46   84 1
  88   46   85 1
  89   47   48 1
  90   47   86 1
  91   47   87 1
  92   48   49 1
  93   48   88 1
  94   48   89 1
  95   49   50 1
  96   49   51 1
  97   50   90 1
  98   50   91 1
  99   50   92 1
 100   51   93 1
 101   51   94 1
 102   51   95 1

#	End of record

