#	Name: ASD08150734
#	Creating user name:	WinNT
#	Creation time:	15. 06. 2019 21:16

#	Modifying user name:	WinNT
#	Modification time:	15. 06. 2019 21:16

#	Program:	/corina/corina34_cracker 3.40 0067  02.08.2006

@<TRIPOS>MOLECULE
ASD08150734
  50   52    0    0    0
SMALL
NO_CHARGES


@<TRIPOS>ATOM
   1 C1            -0.0162     1.3436     0.0094 C.2     
   2 N2             0.0021    -0.0041     0.0020 N.am    
   3 O3             1.0277     1.9654     0.0028 O.2     
   4 O4            -1.1912     2.0008     0.0186 O.3     
   5 C5             1.2806    -0.7192    -0.0140 C.3     
   6 C6             1.8007    -0.8662     1.4173 C.3     
   7 C7            -0.0156    -4.1168    -0.6415 C.2     
   8 N8             0.1762    -2.9147    -0.1285 N.2     
   9 C9             1.0846    -2.0850    -0.6200 C.2     
  10 C10            1.8546    -2.4936    -1.7044 C.2     
  11 C11            1.6451    -3.7752    -2.2459 C.2     
  12 N12            0.6956    -4.5913    -1.7015 N.am    
  13 S13           -1.1345    -5.4156    -0.1905 S.3     
  14 C14            0.3692    -5.8615    -2.1081 C.2     
  15 C15           -0.5805    -6.5166    -1.4639 C.2     
  16 O16            2.3081    -4.1550    -3.1971 O.2     
  17 C17            1.0843    -6.4995    -3.2712 C.3     
  18 C18            2.8795    -1.5924    -2.2806 C.ar    
  19 C19            4.2298    -1.9340    -2.2123 C.ar    
  20 C20            5.1810    -1.0890    -2.7517 C.ar    
  21 C21            4.7939     0.0952    -3.3587 C.ar    
  22 C22            3.4559     0.4376    -3.4280 C.ar    
  23 C23            2.4971    -0.4021    -2.8984 C.ar    
  24 F24            6.4898    -1.4176    -2.6868 F       
  25 C25           -1.1349     3.4517     0.0262 C.3     
  26 C26           -0.4003     3.9401    -1.2239 C.3     
  27 C27           -2.5565     4.0172     0.0360 C.3     
  28 C28           -0.3885     3.9266     1.2745 C.3     
  29 H29           -0.8313    -0.5005     0.0073 H       
  30 H30            2.0030    -0.1587    -0.6074 H       
  31 H31            1.0783    -1.4267     2.0107 H       
  32 H32            2.7520    -1.3983     1.4054 H       
  33 H33            1.9425     0.1217     1.8556 H       
  34 H34           -0.9405    -7.5141    -1.6678 H       
  35 H35            1.9586    -7.0397    -2.9081 H       
  36 H36            0.4115    -7.1937    -3.7748 H       
  37 H37            1.3999    -5.7266    -3.9720 H       
  38 H38            4.5315    -2.8565    -1.7386 H       
  39 H39            5.5401     0.7534    -3.7788 H       
  40 H40            3.1602     1.3619    -3.9019 H       
  41 H41            1.4522    -0.1352    -2.9578 H       
  42 H42           -0.9321     3.6018    -2.1132 H       
  43 H43           -0.3581     5.0293    -1.2182 H       
  44 H44            0.6125     3.5373    -1.2309 H       
  45 H45           -3.0798     3.6692     0.9266 H       
  46 H46           -2.5142     5.1064     0.0417 H       
  47 H47           -3.0883     3.6789    -0.8533 H       
  48 H48            0.6243     3.5237     1.2675 H       
  49 H49           -0.3462     5.0157     1.2802 H       
  50 H50           -0.9118     3.5786     2.1651 H       
@<TRIPOS>BOND
   1    1    2 am
   2    1    3 2
   3    1    4 1
   4    2    5 1
   5    2   29 1
   6    4   25 1
   7    5    6 1
   8    5    9 1
   9    5   30 1
  10    6   31 1
  11    6   32 1
  12    6   33 1
  13    7    8 2
  14    7   12 1
  15    7   13 1
  16    8    9 1
  17    9   10 2
  18   10   11 1
  19   10   18 1
  20   11   12 am
  21   11   16 2
  22   12   14 1
  23   13   15 1
  24   14   15 2
  25   14   17 1
  26   15   34 1
  27   17   35 1
  28   17   36 1
  29   17   37 1
  30   18   19 ar
  31   18   23 ar
  32   19   20 ar
  33   19   38 1
  34   20   21 ar
  35   20   24 1
  36   21   22 ar
  37   21   39 1
  38   22   23 ar
  39   22   40 1
  40   23   41 1
  41   25   26 1
  42   25   28 1
  43   25   27 1
  44   26   42 1
  45   26   43 1
  46   26   44 1
  47   27   45 1
  48   27   46 1
  49   27   47 1
  50   28   48 1
  51   28   49 1
  52   28   50 1

#	End of record

