#	Name: ASD01028268
#	Creating user name:	WinNT
#	Creation time:	15. 06. 2019 18:56

#	Modifying user name:	WinNT
#	Modification time:	15. 06. 2019 18:56

#	Program:	/corina/corina34_cracker 3.40 0067  02.08.2006

@<TRIPOS>MOLECULE
ASD01028268
  41   45    0    0    0
SMALL
NO_CHARGES


@<TRIPOS>ATOM
   1 C1            -0.0157     1.3066     0.0092 C.ar    
   2 N2             0.0021    -0.0041     0.0020 N.ar    
   3 C3             1.1590     2.0560     0.0020 C.ar    
   4 C4             2.3700     1.4248    -0.0129 C.ar    
   5 C5             2.3853     0.0171    -0.0205 C.ar    
   6 C6             1.1534    -0.6834    -0.0126 C.ar    
   7 C7             3.5916    -0.7008    -0.0353 C.ar    
   8 C8             3.5644    -2.0622    -0.0419 C.ar    
   9 C9             2.3546    -2.7530    -0.0346 C.ar    
  10 C10            1.1666    -2.0889    -0.0202 C.ar    
  11 C11            5.3051    -3.0955     1.3576 C.2     
  12 N12            4.9836    -4.1726     2.1069 N.pl3   
  13 C13            5.6071    -3.9914     3.3187 C.2     
  14 N14            6.2590    -2.8425     3.2457 N.2     
  15 N15            6.0780    -2.3244     2.0812 N.2     
  16 N16            4.2094    -5.3126     1.8815 N.2     
  17 C17            4.0697    -6.2203     2.8222 C.2     
  18 C18            4.6966    -6.0628     4.0765 C.2     
  19 C19            5.4571    -4.9642     4.3252 C.2     
  20 C20            3.2427    -7.4243     2.5621 C.ar    
  21 C21            2.6184    -7.5904     1.3273 C.ar    
  22 C22            1.8506    -8.7126     1.0907 C.ar    
  23 C23            1.7002    -9.6714     2.0764 C.ar    
  24 C24            2.3176    -9.5116     3.3038 C.ar    
  25 C25            3.0920    -8.3959     3.5496 C.ar    
  26 C26            4.8600    -2.8318    -0.0578 C.3     
  27 H27           -0.9662     1.8194     0.0165 H       
  28 H28            1.1119     3.1349     0.0079 H       
  29 H29            3.2904     1.9898    -0.0190 H       
  30 H30            4.5357    -0.1763    -0.0418 H       
  31 H31            2.3595    -3.8330    -0.0408 H       
  32 H32            0.2377    -2.6397    -0.0140 H       
  33 H33            4.5721    -6.8165     4.8399 H       
  34 H34            5.9392    -4.8384     5.2834 H       
  35 H35            2.7348    -6.8423     0.5572 H       
  36 H36            1.3660    -8.8423     0.1343 H       
  37 H37            1.0982   -10.5478     1.8870 H       
  38 H38            2.1966   -10.2631     4.0700 H       
  39 H39            3.5737    -8.2721     4.5083 H       
  40 H40            4.7131    -3.7799    -0.5751 H       
  41 H41            5.6221    -2.2496    -0.5758 H       
@<TRIPOS>BOND
   1    1    2 ar
   2    1    3 ar
   3    1   27 1
   4    2    6 ar
   5    3    4 ar
   6    3   28 1
   7    4    5 ar
   8    4   29 1
   9    5    6 ar
  10    5    7 ar
  11    6   10 ar
  12    7    8 ar
  13    7   30 1
  14    8    9 ar
  15    8   26 1
  16    9   10 ar
  17    9   31 1
  18   10   32 1
  19   11   12 1
  20   11   26 1
  21   11   15 2
  22   12   13 1
  23   12   16 1
  24   13   14 2
  25   13   19 1
  26   14   15 1
  27   16   17 2
  28   17   18 1
  29   17   20 1
  30   18   19 2
  31   18   33 1
  32   19   34 1
  33   20   21 ar
  34   20   25 ar
  35   21   22 ar
  36   21   35 1
  37   22   23 ar
  38   22   36 1
  39   23   24 ar
  40   23   37 1
  41   24   25 ar
  42   24   38 1
  43   25   39 1
  44   26   40 1
  45   26   41 1

#	End of record

