#	Name: ASD02508380
#	Creating user name:	WinNT
#	Creation time:	15. 06. 2019 20:24

#	Modifying user name:	WinNT
#	Modification time:	15. 06. 2019 20:24

#	Program:	/corina/corina34_cracker 3.40 0067  02.08.2006

@<TRIPOS>MOLECULE
ASD02508380
  46   48    0    0    0
SMALL
NO_CHARGES


@<TRIPOS>ATOM
   1 C1            -0.0180     1.3964    -0.1077 C.2     
   2 C2             0.0030     0.0053     0.1195 C.2     
   3 C3             1.2947    -0.3770     0.1726 C.2     
   4 N4             2.0750     0.7291    -0.0138 N.pl3   
   5 C5             1.2616     1.8136    -0.1852 C.2     
   6 C6             3.4729     0.7481    -0.0267 C.ar    
   7 C7             4.1564     1.6788     0.7484 C.ar    
   8 N8             4.1333    -0.1229    -0.7717 N.ar    
   9 C9             5.4518    -0.1398    -0.8126 C.ar    
  10 C10            6.1952     0.7586    -0.0728 C.ar    
  11 C11            5.5412     1.6860     0.7264 C.ar    
  12 S12            1.8763    -2.0191     0.4373 S.o2    
  13 O13            1.8547    -2.6616    -0.8299 O.2     
  14 O14            3.0492    -1.9062     1.2316 O.2     
  15 N15            0.7504    -2.7929     1.3733 N.am    
  16 C16           -0.5330    -3.0259     0.8727 C.ar    
  17 C17           -0.6975    -3.5141    -0.4181 C.ar    
  18 C18           -2.9218    -3.0104     1.1614 C.ar    
  19 C19           -1.6425    -2.7756     1.6659 C.ar    
  20 C20           -1.9653    -3.7468    -0.9180 C.ar    
  21 C21           -3.0761    -3.4957    -0.1391 C.ar    
  22 Cl22           3.2859     2.8161     1.7294 Cl      
  23 C23           -4.1093    -2.7467     1.9999 C.2     
  24 O24           -5.3435    -2.9743     1.5104 O.3     
  25 O25           -3.9727    -2.3246     3.1307 O.2     
  26 C26           -6.4638    -2.6928     2.3902 C.3     
  27 C27           -7.7735    -3.0099     1.6656 C.3     
  28 C28            7.7009     0.7287    -0.1283 C.3     
  29 F29            8.1156    -0.2902    -0.9926 F       
  30 F30            8.1748     1.9590    -0.5963 F       
  31 F31            8.2101     0.4896     1.1527 F       
  32 H32           -0.8983     2.0143    -0.2064 H       
  33 H33           -0.8582    -0.6369     0.2307 H       
  34 H34            1.5875     2.8293    -0.3539 H       
  35 H35            5.9565    -0.8661    -1.4324 H       
  36 H36            6.0992     2.3994     1.3146 H       
  37 H37            0.9820    -3.0844     2.2690 H       
  38 H38            0.1681    -3.7120    -1.0330 H       
  39 H39           -1.5168    -2.4004     2.6708 H       
  40 H40           -2.0866    -4.1262    -1.9219 H       
  41 H41           -4.0647    -3.6785    -0.5336 H       
  42 H42           -6.3859    -3.3087     3.2861 H       
  43 H43           -6.4497    -1.6396     2.6709 H       
  44 H44           -7.8514    -2.3940     0.7697 H       
  45 H45           -7.7876    -4.0631     1.3849 H       
  46 H46           -8.6145    -2.7986     2.3260 H       
@<TRIPOS>BOND
   1    1    2 1
   2    1    5 2
   3    1   32 1
   4    2    3 2
   5    2   33 1
   6    3    4 1
   7    3   12 1
   8    4    5 1
   9    4    6 1
  10    5   34 1
  11    6    7 ar
  12    6    8 ar
  13    7   22 1
  14    7   11 ar
  15    8    9 ar
  16    9   10 ar
  17    9   35 1
  18   10   11 ar
  19   10   28 1
  20   11   36 1
  21   12   13 2
  22   12   14 2
  23   12   15 am
  24   15   16 1
  25   15   37 1
  26   16   17 ar
  27   16   19 ar
  28   17   20 ar
  29   17   38 1
  30   18   19 ar
  31   18   23 1
  32   18   21 ar
  33   19   39 1
  34   20   21 ar
  35   20   40 1
  36   21   41 1
  37   23   24 1
  38   23   25 2
  39   24   26 1
  40   26   27 1
  41   26   42 1
  42   26   43 1
  43   27   44 1
  44   27   45 1
  45   27   46 1
  46   28   29 1
  47   28   30 1
  48   28   31 1

#	End of record

