#	Name: ASD01918149
#	Creating user name:	WinNT
#	Creation time:	15. 06. 2019 20:10

#	Modifying user name:	WinNT
#	Modification time:	15. 06. 2019 20:10

#	Program:	/corina/corina34_cracker 3.40 0067  02.08.2006

@<TRIPOS>MOLECULE
ASD01918149
  37   40    0    0    0
SMALL
NO_CHARGES


@<TRIPOS>ATOM
   1 N1             5.1490     1.7515    -3.1532 N.ar    
   2 C2             5.3113     0.4451    -3.2314 C.ar    
   3 C3             4.8623    -0.3880    -2.2215 C.ar    
   4 C4             4.2338     0.1686    -1.1143 C.ar    
   5 C5             4.0810     1.5529    -1.0674 C.ar    
   6 C6             4.5578     2.3188    -2.1197 C.ar    
   7 O7             3.4722     2.1437    -0.0052 O.3     
   8 C8             3.4510     3.5028     0.0440 C.2     
   9 N9             2.1974     5.5138    -0.0220 N.pl3   
  10 C10            2.2673     4.1580    -0.0659 C.2     
  11 C11            4.6497     4.2061     0.2129 C.2     
  12 C12            4.6198     5.5954     0.2626 C.2     
  13 C13            3.3264     6.2665     0.1351 C.2     
  14 C14            5.8588     6.3713     0.4396 C.2     
  15 N15            5.8101     7.7175     0.4854 N.am    
  16 O16            6.9260     5.7975     0.5444 O.2     
  17 N17            1.1332     6.4233    -0.1082 N.2     
  18 C18            1.6463     7.6269    -0.0117 C.2     
  19 N19            2.9615     7.5389     0.1407 N.2     
  20 C20            6.9649     8.4473     0.7581 C.ar    
  21 N21            8.1268     7.8214     0.8639 N.ar    
  22 C22            6.8878     9.8270     0.9109 C.ar    
  23 C23            8.0427    10.5399     1.1811 C.ar    
  24 C24            9.2396     9.8453     1.2895 C.ar    
  25 C25            9.2436     8.4745     1.1207 C.ar    
  26 F26            5.0325    -1.7252    -2.3112 F       
  27 F27            3.7818    -0.6125    -0.1089 F       
  28 H28            5.8008     0.0197    -4.0950 H       
  29 H29            4.4440     3.3925    -2.0929 H       
  30 H30            1.3590     3.5874    -0.1916 H       
  31 H31            5.5862     3.6760     0.3039 H       
  32 H32            4.9710     8.1781     0.3285 H       
  33 H33            1.0833     8.5480    -0.0426 H       
  34 H34            5.9394    10.3355     0.8196 H       
  35 H35            8.0135    11.6124     1.3045 H       
  36 H36           10.1588    10.3718     1.4997 H       
  37 H37           10.1732     7.9304     1.2000 H       
@<TRIPOS>BOND
   1    1    2 ar
   2    1    6 ar
   3    2    3 ar
   4    2   28 1
   5    3    4 ar
   6    3   26 1
   7    4    5 ar
   8    4   27 1
   9    5    6 ar
  10    5    7 1
  11    6   29 1
  12    7    8 1
  13    8   11 1
  14    8   10 2
  15    9   10 1
  16    9   17 1
  17    9   13 1
  18   10   30 1
  19   11   12 2
  20   11   31 1
  21   12   13 1
  22   12   14 1
  23   13   19 2
  24   14   15 am
  25   14   16 2
  26   15   20 1
  27   15   32 1
  28   17   18 2
  29   18   19 1
  30   18   33 1
  31   20   22 ar
  32   20   21 ar
  33   21   25 ar
  34   22   23 ar
  35   22   34 1
  36   23   24 ar
  37   23   35 1
  38   24   25 ar
  39   24   36 1
  40   25   37 1

#	End of record

