#	Name: ASD03091334
#	Creating user name:	WinNT
#	Creation time:	15. 06. 2019 20:30

#	Modifying user name:	WinNT
#	Modification time:	15. 06. 2019 20:30

#	Program:	/corina/corina34_cracker 3.40 0067  02.08.2006

@<TRIPOS>MOLECULE
ASD03091334
  39   40    0    0    0
SMALL
NO_CHARGES


@<TRIPOS>ATOM
   1 C1             0.2402     1.9051     0.4527 C.ar    
   2 C2            -0.0095     0.5493     0.3314 C.ar    
   3 C3             1.0622    -0.3312     0.2562 C.ar    
   4 N4             2.3061     0.1161     0.3000 N.ar    
   5 C5             2.5756     1.4026     0.4157 C.ar    
   6 C6             1.5596     2.3341     0.4947 C.ar    
   7 C7             4.8032    -3.4809    -3.3087 C.ar    
   8 N8             5.2112    -2.3569    -2.7509 N.ar    
   9 C9             5.8944    -1.4521    -3.4321 C.ar    
  10 C10            6.2067    -1.6603    -4.7694 C.ar    
  11 C11            5.7933    -2.8298    -5.3832 C.ar    
  12 C12            5.0785    -3.7540    -4.6337 C.ar    
  13 C13            4.8992    -2.1044    -1.3419 C.3     
  14 C14            3.6666    -1.2032    -1.2460 C.3     
  15 C15            3.4124    -0.8409     0.2186 C.3     
  16 O16            6.2935    -0.3096    -2.8189 O.3     
  17 C17            6.9309     0.6758    -3.6343 C.3     
  18 O18            0.8307    -1.6627     0.1370 O.3     
  19 C19           -0.5281    -2.0957     0.2282 C.3     
  20 H20           -0.5730     2.6136     0.5089 H       
  21 H21           -1.0240     0.1807     0.2960 H       
  22 H22            3.6039     1.7310     0.4486 H       
  23 H23            1.7891     3.3853     0.5889 H       
  24 H24            4.2510    -4.1985    -2.7200 H       
  25 H25            6.7645    -0.9194    -5.3228 H       
  26 H26            6.0213    -3.0189    -6.4218 H       
  27 H27            4.7414    -4.6768    -5.0823 H       
  28 H28            4.6976    -3.0504    -0.8393 H       
  29 H29            5.7468    -1.6128    -0.8645 H       
  30 H30            3.8363    -0.2930    -1.8212 H       
  31 H31            2.7998    -1.7293    -1.6458 H       
  32 H32            4.3112    -0.3942     0.6437 H       
  33 H33            3.1556    -1.7415     0.7764 H       
  34 H34            7.7946     0.2333    -4.1306 H       
  35 H35            6.2270     1.0377    -4.3838 H       
  36 H36            7.2571     1.5079    -3.0104 H       
  37 H37           -0.9608    -1.7401     1.1633 H       
  38 H38           -1.0950    -1.6926    -0.6110 H       
  39 H39           -0.5649    -3.1848     0.2018 H       
@<TRIPOS>BOND
   1    1    2 ar
   2    1    6 ar
   3    1   20 1
   4    2    3 ar
   5    2   21 1
   6    3    4 ar
   7    3   18 1
   8    4    5 ar
   9    4   15 1
  10    5    6 ar
  11    5   22 1
  12    6   23 1
  13    7    8 ar
  14    7   12 ar
  15    7   24 1
  16    8    9 ar
  17    8   13 1
  18    9   10 ar
  19    9   16 1
  20   10   11 ar
  21   10   25 1
  22   11   12 ar
  23   11   26 1
  24   12   27 1
  25   13   14 1
  26   13   28 1
  27   13   29 1
  28   14   15 1
  29   14   30 1
  30   14   31 1
  31   15   32 1
  32   15   33 1
  33   16   17 1
  34   17   34 1
  35   17   35 1
  36   17   36 1
  37   18   19 1
  38   19   37 1
  39   19   38 1
  40   19   39 1

#	End of record

