#	Name: ASD05250024
#	Creating user name:	WinNT
#	Creation time:	15. 06. 2019 20:58

#	Modifying user name:	WinNT
#	Modification time:	15. 06. 2019 20:58

#	Program:	/corina/corina34_cracker 3.40 0067  02.08.2006

@<TRIPOS>MOLECULE
ASD05250024
  56   59    0    0    0
SMALL
NO_CHARGES


@<TRIPOS>ATOM
   1 C1             0.0985     3.3331    -1.2560 C.3     
   2 C2            -0.1573     1.8466    -1.4094 C.2     
   3 C3             0.4218     0.9722    -0.3840 C.2     
   4 C4             1.4421     1.3996     0.3592 C.2     
   5 C5             2.0680     2.7517     0.2056 C.3     
   6 C6             1.5970     3.5166    -1.0185 C.3     
   7 C7             1.9761     0.4679     1.4317 C.3     
   8 C8             3.5006     0.4041     1.3139 C.3     
   9 C9             4.0706     1.8238     1.3880 C.3     
  10 C10            3.5952     2.6181     0.1629 C.3     
  11 C11            5.5870     1.7700     1.3410 C.3     
  12 C12            6.1006     3.2285     1.4821 C.3     
  13 C13            5.7519     3.9498     0.1944 C.3     
  14 C14            4.2185     4.0095     0.1104 C.3     
  15 C15            6.2645     1.0858     2.5339 C.3     
  16 C16            7.6948     1.6907     2.5157 C.3     
  17 C17            7.5850     3.0504     1.7821 C.3     
  18 O18           -0.8079     1.4033    -2.3325 O.2     
  19 C19            8.0753     4.1642     2.6710 C.2     
  20 O20            8.3355     3.0191     0.5664 O.3     
  21 O21            3.7219     4.7840     1.2037 O.3     
  22 O22            8.1139     4.0089     3.8679 O.2     
  23 C23            8.5173     5.4718     2.0662 C.3     
  24 S24            9.0475     6.5993     3.3846 S.3     
  25 C25            5.4069     3.9108     2.6629 C.3     
  26 C26            1.7181     3.5790     1.4442 C.3     
  27 H27           -0.1993     3.8560    -2.1648 H       
  28 H28           -0.4616     3.7195    -0.4046 H       
  29 H29            0.0208    -0.0188    -0.2309 H       
  30 H30            2.1420     3.1596    -1.8923 H       
  31 H31            1.8077     4.5768    -0.8782 H       
  32 H32            1.7012     0.8478     2.4157 H       
  33 H33            1.5568    -0.5285     1.2921 H       
  34 H34            3.9044    -0.1936     2.1310 H       
  35 H35            3.7736    -0.0487     0.3607 H       
  36 H36            3.7435     2.3087     2.3077 H       
  37 H37            3.8782     2.0786    -0.7409 H       
  38 H38            5.9223     1.3368     0.3986 H       
  39 H39            6.1626     4.9594     0.2112 H       
  40 H40            6.1495     3.4001    -0.6587 H       
  41 H41            3.9323     4.4920    -0.8241 H       
  42 H42            5.7523     1.3349     3.4633 H       
  43 H43            6.3006     0.0060     2.3897 H       
  44 H44            8.0496     1.8431     3.5350 H       
  45 H45            8.3739     1.0292     1.9777 H       
  46 H46            9.2874     2.9077     0.6946 H       
  47 H47            4.0464     5.6948     1.2200 H       
  48 H48            9.3486     5.2940     1.3840 H       
  49 H49            7.6871     5.9179     1.5186 H       
  50 H50            9.4082     7.7055     2.7099 H       
  51 H51            5.7872     3.4965     3.5966 H       
  52 H52            5.6072     4.9818     2.6324 H       
  53 H53            4.3321     3.7403     2.6008 H       
  54 H54            2.3726     3.2942     2.2680 H       
  55 H55            1.8517     4.6380     1.2234 H       
  56 H56            0.6809     3.3941     1.7236 H       
@<TRIPOS>BOND
   1    1    2 1
   2    1    6 1
   3    1   27 1
   4    1   28 1
   5    2    3 1
   6    2   18 2
   7    3    4 2
   8    3   29 1
   9    4    5 1
  10    4    7 1
  11    5    6 1
  12    5   26 1
  13    5   10 1
  14    6   30 1
  15    6   31 1
  16    7    8 1
  17    7   32 1
  18    7   33 1
  19    8    9 1
  20    8   34 1
  21    8   35 1
  22    9   11 1
  23    9   10 1
  24    9   36 1
  25   10   14 1
  26   10   37 1
  27   11   12 1
  28   11   15 1
  29   11   38 1
  30   12   13 1
  31   12   25 1
  32   12   17 1
  33   13   14 1
  34   13   39 1
  35   13   40 1
  36   14   21 1
  37   14   41 1
  38   15   16 1
  39   15   42 1
  40   15   43 1
  41   16   17 1
  42   16   44 1
  43   16   45 1
  44   17   19 1
  45   17   20 1
  46   19   22 2
  47   19   23 1
  48   20   46 1
  49   21   47 1
  50   23   24 1
  51   23   48 1
  52   23   49 1
  53   24   50 1
  54   25   51 1
  55   25   52 1
  56   25   53 1
  57   26   54 1
  58   26   55 1
  59   26   56 1

#	End of record

