#	Name: ASD05310006
#	Creating user name:	WinNT
#	Creation time:	15. 06. 2019 20:58

#	Modifying user name:	WinNT
#	Modification time:	15. 06. 2019 20:58

#	Program:	/corina/corina34_cracker 3.40 0067  02.08.2006

@<TRIPOS>MOLECULE
ASD05310006
  55   58    0    0    0
SMALL
NO_CHARGES


@<TRIPOS>ATOM
   1 C1            -0.0167     1.3778     0.0096 C.ar    
   2 C2             0.0021    -0.0041     0.0020 C.ar    
   3 N3             1.1442    -0.6631    -0.0124 N.ar    
   4 C4             2.3054    -0.0381    -0.0202 C.ar    
   5 C5             2.3651     1.3426    -0.0129 C.ar    
   6 C6             1.1848     2.0699     0.0019 C.ar    
   7 C7             1.2071     3.5767     0.0092 C.3     
   8 C8             1.2282     4.0793     1.4542 C.3     
   9 C9             1.2509     5.6091     1.4617 C.3     
  10 C10            1.1462     6.1137     2.9023 C.3     
  11 O11            1.0502     7.5395     2.9018 O.3     
  12 C12            0.9496     8.1513     4.1108 C.ar    
  13 N13            2.5043     6.0818     0.8686 N.am    
  14 C14            3.8281     7.2619    -0.7152 C.3     
  15 S15            4.9650     6.4617     0.4666 S.3     
  16 C16            3.6655     5.7272     1.4229 C.2     
  17 C17            2.4638     6.8473    -0.2091 C.2     
  18 C18            0.9495     7.3925     5.2734 C.ar    
  19 C19            0.8529     9.5345     4.1814 C.ar    
  20 C20            0.7517    10.1583     5.4071 C.ar    
  21 C21            0.7460     9.3988     6.5757 C.ar    
  22 C22            0.8480     8.0107     6.5020 C.ar    
  23 C23            0.6377    10.0670     7.8959 C.ar    
  24 C24            0.5414    11.4554     7.9713 C.ar    
  25 C25            0.4410    12.0716     9.2019 C.ar    
  26 C26            0.4362    11.3139    10.3595 C.ar    
  27 C27            0.5319     9.9359    10.2906 C.ar    
  28 C28            0.6262     9.3085     9.0646 C.ar    
  29 N29            0.5269     9.1766    11.4644 N.3     
  30 O30           -0.6757     8.8646    11.7649 O.2     
  31 O31            1.2115     8.1120    11.2861 O.3     
  32 O32            3.8065     5.0268     2.4065 O.2     
  33 O33            1.4289     7.1854    -0.7426 O.2     
  34 H34           -0.9553     1.9119     0.0170 H       
  35 H35           -0.9294    -0.5505     0.0083 H       
  36 H36            3.2203    -0.6119    -0.0320 H       
  37 H37            3.3192     1.8487    -0.0185 H       
  38 H38            2.0976     3.9294    -0.5112 H       
  39 H39            0.3179     3.9557    -0.4944 H       
  40 H40            0.3378     3.7266     1.9746 H       
  41 H41            2.1175     3.7003     1.9578 H       
  42 H42            0.4091     5.9879     0.8820 H       
  43 H43            0.2586     5.6899     3.3721 H       
  44 H44            2.0325     5.8094     3.4591 H       
  45 H45            3.9381     8.3458    -0.6822 H       
  46 H46            3.9952     6.8870    -1.7250 H       
  47 H47            1.0286     6.3170     5.2156 H       
  48 H48            0.8574    10.1225     3.2755 H       
  49 H49            0.6772    11.2344     5.4614 H       
  50 H50            0.8477     7.4199     7.4060 H       
  51 H51            0.5458    12.0478     7.0684 H       
  52 H52            0.3663    13.1473     9.2616 H       
  53 H53            0.3578    11.8004    11.3205 H       
  54 H54            0.6956     8.2321     9.0117 H       
  55 H55            0.9323     9.7153    12.2151 H       
@<TRIPOS>BOND
   1    1    2 ar
   2    1    6 ar
   3    1   34 1
   4    2    3 ar
   5    2   35 1
   6    3    4 ar
   7    4    5 ar
   8    4   36 1
   9    5    6 ar
  10    5   37 1
  11    6    7 1
  12    7    8 1
  13    7   38 1
  14    7   39 1
  15    8    9 1
  16    8   40 1
  17    8   41 1
  18    9   10 1
  19    9   13 1
  20    9   42 1
  21   10   11 1
  22   10   43 1
  23   10   44 1
  24   11   12 1
  25   12   19 ar
  26   12   18 ar
  27   13   17 am
  28   13   16 am
  29   14   15 1
  30   14   17 1
  31   14   45 1
  32   14   46 1
  33   15   16 1
  34   16   32 2
  35   17   33 2
  36   18   22 ar
  37   18   47 1
  38   19   20 ar
  39   19   48 1
  40   20   21 ar
  41   20   49 1
  42   21   22 ar
  43   21   23 1
  44   22   50 1
  45   23   24 ar
  46   23   28 ar
  47   24   25 ar
  48   24   51 1
  49   25   26 ar
  50   25   52 1
  51   26   27 ar
  52   26   53 1
  53   27   28 ar
  54   27   29 1
  55   28   54 1
  56   29   30 2
  57   29   31 1
  58   29   55 1

#	End of record

