#	Name: ASD02198530
#	Creating user name:	WinNT
#	Creation time:	15. 06. 2019 20:19

#	Modifying user name:	WinNT
#	Modification time:	15. 06. 2019 20:19

#	Program:	/corina/corina34_cracker 3.40 0067  02.08.2006

@<TRIPOS>MOLECULE
ASD02198530
  41   44    0    0    0
SMALL
NO_CHARGES


@<TRIPOS>ATOM
   1 C1             0.2396     1.6275     0.2918 C.2     
   2 C2             0.4211     0.2841     0.2202 C.2     
   3 N3            -0.6335    -0.5511     0.0804 N.pl3   
   4 N4            -1.8475    -0.1463     0.0078 N.2     
   5 C5            -2.1638     1.1295     0.0644 C.2     
   6 C6            -1.0866     2.1199     0.2211 C.2     
   7 C7            -0.3868    -1.9262     0.0112 C.ar    
   8 C8             1.1585    -3.7547    -0.1298 C.ar    
   9 C9             0.1011    -4.6464    -0.1266 C.ar    
  10 C10           -1.1994    -4.1814    -0.0601 C.ar    
  11 C11           -1.4465    -2.8243     0.0088 C.ar    
  12 C12           -3.5742     1.5595    -0.0226 C.2     
  13 N13           -4.2453     2.3310     0.8840 N.pl3   
  14 N14           -5.5543     2.4988     0.4154 N.2     
  15 C15           -5.6793     1.8620    -0.7217 C.2     
  16 C16           -4.4592     1.2634    -1.0361 C.2     
  17 C17           -3.7185     2.8589     2.0697 C.ar    
  18 C18           -2.8987     2.0790     2.8746 C.ar    
  19 O19           -1.3254     3.3169     0.2796 O.2     
  20 C20           -4.0103     4.1652     2.4397 C.ar    
  21 C21           -3.4890     4.6829     3.6092 C.ar    
  22 C22           -2.6771     3.9020     4.4112 C.ar    
  23 C23           -2.3804     2.6026     4.0428 C.ar    
  24 C24            0.9186    -2.3967    -0.0611 C.ar    
  25 Br25           1.7084     2.8023     0.4872 Br      
  26 F26            2.5628    -5.6640    -0.2572 F       
  27 F27            3.1953    -3.7591    -1.3484 F       
  28 C28            2.5742    -4.2661    -0.2019 C.3     
  29 F29            3.2788    -3.8501     0.9328 F       
  30 H30            1.4200    -0.1227     0.2753 H       
  31 H31            0.2918    -5.7083    -0.1763 H       
  32 H32           -2.0227    -4.8804    -0.0578 H       
  33 H33           -2.4625    -2.4617     0.0612 H       
  34 H34           -6.5773     1.8119    -1.3195 H       
  35 H35           -4.2482     0.6691    -1.9128 H       
  36 H36           -2.6668     1.0640     2.5876 H       
  37 H37           -4.6440     4.7757     1.8135 H       
  38 H38           -3.7153     5.6989     3.8973 H       
  39 H39           -2.2703     4.3093     5.3251 H       
  40 H40           -1.7463     1.9950     4.6715 H       
  41 H41            1.7446    -1.7009    -0.0639 H       
@<TRIPOS>BOND
   1    1    2 2
   2    1   25 1
   3    1    6 1
   4    2    3 1
   5    2   30 1
   6    3    4 1
   7    3    7 1
   8    4    5 2
   9    5    6 1
  10    5   12 1
  11    6   19 2
  12    7   24 ar
  13    7   11 ar
  14    8    9 ar
  15    8   28 1
  16    8   24 ar
  17    9   10 ar
  18    9   31 1
  19   10   11 ar
  20   10   32 1
  21   11   33 1
  22   12   13 1
  23   12   16 2
  24   13   14 1
  25   13   17 1
  26   14   15 2
  27   15   16 1
  28   15   34 1
  29   16   35 1
  30   17   20 ar
  31   17   18 ar
  32   18   23 ar
  33   18   36 1
  34   20   21 ar
  35   20   37 1
  36   21   22 ar
  37   21   38 1
  38   22   23 ar
  39   22   39 1
  40   23   40 1
  41   24   41 1
  42   26   28 1
  43   27   28 1
  44   28   29 1

#	End of record

