#	Name: ASD01200325
#	Creating user name:	WinNT
#	Creation time:	15. 06. 2019 19:08

#	Modifying user name:	WinNT
#	Modification time:	15. 06. 2019 19:08

#	Program:	/corina/corina34_cracker 3.40 0067  02.08.2006

@<TRIPOS>MOLECULE
ASD01200325
  32   34    0    0    0
SMALL
NO_CHARGES


@<TRIPOS>ATOM
   1 C1            -0.0169     1.3921     0.0097 C.ar    
   2 C2             0.0021    -0.0041     0.0020 C.ar    
   3 C3             1.1796    -0.6893    -0.0129 C.ar    
   4 C4             2.3930     0.0113    -0.0208 C.ar    
   5 C5             2.3801     1.4275    -0.0131 C.ar    
   6 C6             1.1598     2.1106     0.0023 C.ar    
   7 N7             3.5765    -0.6217    -0.0350 N.ar    
   8 C8             4.6961     0.0611    -0.0417 C.ar    
   9 N9             4.7335     1.3843    -0.0350 N.ar    
  10 C10            3.6225     2.1084    -0.0209 C.ar    
  11 O11           -1.2067     2.0492     0.0189 O.3     
  12 N12            3.6752     3.4871    -0.0136 N.pl3   
  13 C13           -2.3902     1.2482     0.0201 C.3     
  14 C14            4.9138     4.1406    -0.0216 C.2     
  15 N15            5.1001     5.4396    -0.0155 N.2     
  16 N16            6.4795     5.6830    -0.0268 N.pl3   
  17 C17            7.1143     4.4920    -0.0397 C.2     
  18 C18            6.1737     3.5204    -0.0312 C.2     
  19 C19            7.1210     7.0001    -0.0253 C.3     
  20 H20           -0.9304    -0.5488     0.0084 H       
  21 H21            1.1777    -1.7693    -0.0184 H       
  22 H22            1.1393     3.1904     0.0087 H       
  23 H23            5.6302    -0.4809    -0.0527 H       
  24 H24            2.8543     4.0038    -0.0030 H       
  25 H25           -2.3988     0.6142     0.9067 H       
  26 H26           -3.2671     1.8956     0.0278 H       
  27 H27           -2.4072     0.6239    -0.8732 H       
  28 H28            8.1837     4.3415    -0.0508 H       
  29 H29            6.3586     2.4563    -0.0342 H       
  30 H30            7.2899     7.3208     1.0027 H       
  31 H31            8.0753     6.9400    -0.5486 H       
  32 H32            6.4751     7.7194    -0.5288 H       
@<TRIPOS>BOND
   1    1    2 ar
   2    1    6 ar
   3    1   11 1
   4    2    3 ar
   5    2   20 1
   6    3    4 ar
   7    3   21 1
   8    4    5 ar
   9    4    7 ar
  10    5    6 ar
  11    5   10 ar
  12    6   22 1
  13    7    8 ar
  14    8    9 ar
  15    8   23 1
  16    9   10 ar
  17   10   12 1
  18   11   13 1
  19   12   14 1
  20   12   24 1
  21   13   25 1
  22   13   26 1
  23   13   27 1
  24   14   15 2
  25   14   18 1
  26   15   16 1
  27   16   17 1
  28   16   19 1
  29   17   18 2
  30   17   28 1
  31   18   29 1
  32   19   30 1
  33   19   31 1
  34   19   32 1

#	End of record

