#	Name: ASD04570018
#	Creating user name:	WinNT
#	Creation time:	15. 06. 2019 20:49

#	Modifying user name:	WinNT
#	Modification time:	15. 06. 2019 20:49

#	Program:	/corina/corina34_cracker 3.40 0067  02.08.2006

@<TRIPOS>MOLECULE
ASD04570018
 358  359    0    0    0
SMALL
NO_CHARGES


@<TRIPOS>ATOM
   1 C1            -0.0187     1.5258     0.0104 C.3     
   2 C2             0.0021    -0.0041     0.0020 C.3     
   3 C3             0.7182    -0.4975    -1.2568 C.3     
   4 C4             0.7390    -2.0273    -1.2652 C.3     
   5 C5             1.4551    -2.5207    -2.5240 C.3     
   6 C6             1.4758    -4.0506    -2.5324 C.3     
   7 C7             2.1920    -4.5440    -3.7912 C.3     
   8 C8             2.2127    -6.0738    -3.7996 C.3     
   9 C9             2.9289    -6.5673    -5.0584 C.3     
  10 C10            2.9496    -8.0971    -5.0668 C.3     
  11 C11            3.6658    -8.5905    -6.3257 C.3     
  12 C12            3.6865   -10.1203    -6.3341 C.3     
  13 C13            4.4026   -10.6138    -7.5929 C.3     
  14 C14            4.4234   -12.1436    -7.6013 C.3     
  15 C15            5.1395   -12.6370    -8.8601 C.3     
  16 C16            5.1600   -14.1439    -8.8684 C.2     
  17 N17            5.7430   -14.8043    -9.8884 N.am    
  18 O18            4.6518   -14.7622    -7.9572 O.2     
  19 C19            5.7628   -16.2691    -9.8964 C.3     
  20 H20            6.1494   -14.3097   -10.6171 H       
  21 C21            6.9256   -16.7512   -10.7251 C.2     
  22 C22            4.4568   -16.7936   -10.4964 C.3     
  23 C23            3.2875   -16.4097    -9.5874 C.3     
  24 S24            1.7390   -17.0315   -10.2988 S.3     
  25 C25            0.4915   -16.4867    -9.0999 C.3     
  26 N26            7.1439   -18.0726   -10.8756 N.am    
  27 O27            7.6649   -15.9500   -11.2566 O.2     
  28 C28            8.2742   -18.5412   -11.6811 C.3     
  29 C29            8.2947   -20.0481   -11.6894 C.2     
  30 N30            9.2534   -20.7053   -12.3716 N.am    
  31 O31            7.4484   -20.6694   -11.0822 O.2     
  32 C32            9.2733   -22.1701   -12.3797 C.3     
  33 C33            8.3425   -22.6868   -13.4787 C.3     
  34 C34            6.9208   -22.3091   -13.1515 C.ar    
  35 C35            6.4052   -21.1072   -13.6001 C.ar    
  36 N36           10.9368   -23.9734   -12.6948 N.am    
  37 C37           10.6768   -22.6520   -12.6424 C.2     
  38 C38            6.1323   -23.1677   -12.4079 C.ar    
  39 C39            4.8286   -22.8241   -12.1070 C.ar    
  40 C40            4.3106   -21.6163   -12.5516 C.ar    
  41 C41            5.1022   -20.7587   -13.3015 C.ar    
  42 O42           11.5722   -21.8508   -12.8067 O.2     
  43 C43           12.3012   -24.4419   -12.9502 C.3     
  44 O44            3.0282   -21.2761   -12.2572 O.3     
  45 C45           12.5527   -24.4817   -14.4588 C.3     
  46 C46           12.4734   -25.8244   -12.3756 C.2     
  47 N47           13.6563   -26.4599   -12.4918 N.am    
  48 O48           11.5477   -26.3651   -11.8085 O.2     
  49 C49           12.5008   -23.0601   -15.0222 C.3     
  50 C50           12.7486   -23.0993   -16.5081 C.2     
  51 O51           12.9471   -24.1598   -17.0621 O.2     
  52 N52           12.7495   -21.9558   -17.2215 N.am    
  53 C53           13.8237   -27.8038   -11.9332 C.3     
  54 C54           13.3333   -28.8414   -12.9450 C.3     
  55 C55           15.2806   -28.0449   -11.6325 C.2     
  56 C56           11.8270   -28.6756   -13.1562 C.3     
  57 C57           11.3366   -29.7132   -14.1680 C.3     
  58 C58            9.8304   -29.5474   -14.3791 C.3     
  59 N59            9.3595   -30.5437   -15.3506 N.3     
  60 N60           15.6746   -29.2224   -11.1084 N.am    
  61 O61           16.0985   -27.1794   -11.8622 O.2     
  62 C62           17.0909   -29.4568   -10.8161 C.3     
  63 C63           17.7871   -29.9428   -12.0611 C.2     
  64 C64           17.2167   -30.5129    -9.7162 C.3     
  65 C65           16.6197   -29.9693    -8.4166 C.3     
  66 C66           16.7455   -31.0254    -7.3167 C.3     
  67 C67           16.1485   -30.4819    -6.0170 C.3     
  68 N68           16.2693   -31.4959    -4.9610 N.3     
  69 O69           17.1618   -30.0799   -13.0912 O.2     
  70 N70           19.1046   -30.2251   -12.0299 N.am    
  71 C71           19.7813   -30.6975   -13.2403 C.3     
  72 H72            1.0039     1.9031     0.0027 H       
  73 H73           -0.5459     1.8868    -0.8726 H       
  74 H74           -0.5289     1.8773     0.9072 H       
  75 H75            0.5293    -0.3651     0.8851 H       
  76 H76           -1.0205    -0.3814     0.0098 H       
  77 H77            0.1910    -0.1364    -2.1398 H       
  78 H78            1.7408    -0.1202    -1.2645 H       
  79 H79            1.2661    -2.3884    -0.3821 H       
  80 H80           -0.2836    -2.4046    -1.2575 H       
  81 H81            0.9279    -2.1597    -3.4071 H       
  82 H82            2.4777    -2.1435    -2.5317 H       
  83 H83            2.0030    -4.4117    -1.6494 H       
  84 H84            0.4533    -4.4279    -2.5247 H       
  85 H85            1.6648    -4.1829    -4.6743 H       
  86 H86            3.2146    -4.1667    -3.7990 H       
  87 H87            2.7399    -6.4349    -2.9166 H       
  88 H88            1.1901    -6.4511    -3.7919 H       
  89 H89            2.4017    -6.2062    -5.9415 H       
  90 H90            3.9515    -6.1900    -5.0662 H       
  91 H91            3.4768    -8.4582    -4.1838 H       
  92 H92            1.9270    -8.4744    -5.0591 H       
  93 H93            3.1386    -8.2294    -7.2087 H       
  94 H94            4.6884    -8.2132    -6.3334 H       
  95 H95            4.2137   -10.4814    -5.4510 H       
  96 H96            2.6639   -10.4976    -6.3263 H       
  97 H97            3.8755   -10.2527    -8.4759 H       
  98 H98            5.4252   -10.2365    -7.6006 H       
  99 H99            4.9506   -12.5047    -6.7182 H       
 100 H100           3.4008   -12.5209    -7.5935 H       
 101 H101           4.6123   -12.2759    -9.7431 H       
 102 H102           6.1621   -12.2597    -8.8678 H       
 103 H103           5.8671   -16.6367    -8.8756 H       
 104 H104           4.3087   -16.3555   -11.4835 H       
 105 H105           4.5074   -17.8789   -10.5845 H       
 106 H106           3.4356   -16.8477    -8.6003 H       
 107 H107           3.2369   -15.3244    -9.4993 H       
 108 H108          -0.4956   -16.8104    -9.4301 H       
 109 H109           0.7095   -16.9228    -8.1250 H       
 110 H110           0.5108   -15.3995    -9.0240 H       
 111 H111           6.5526   -18.7134   -10.4504 H       
 112 H112           8.1700   -18.1737   -12.7020 H       
 113 H113           9.2047   -18.1676   -11.2537 H       
 114 H114           9.9302   -20.2084   -12.8573 H       
 115 H115           8.9360   -22.5434   -11.4127 H       
 116 H116           8.6259   -22.2430   -14.4331 H       
 117 H117           8.4245   -23.7717   -13.5438 H       
 118 H118           7.0218   -20.4401   -14.1843 H       
 119 H119          10.2206   -24.6143   -12.5633 H       
 120 H120           6.5359   -24.1080   -12.0624 H       
 121 H121           4.2130   -23.4952   -11.5265 H       
 122 H122           4.7013   -19.8179   -13.6488 H       
 123 H123          13.0125   -23.7622   -12.4810 H       
 124 H124           2.9313   -20.7865   -11.4290 H       
 125 H125          13.5347   -24.9135   -14.6522 H       
 126 H126          11.7870   -25.0910   -14.9389 H       
 127 H127          14.3967   -26.0274   -12.9453 H       
 128 H128          11.5188   -22.6283   -14.8288 H       
 129 H129          13.2665   -22.4508   -14.5421 H       
 130 H130          12.5906   -21.1076   -16.7785 H       
 131 H131          12.9089   -21.9810   -18.1780 H       
 132 H132          13.2439   -27.8902   -11.0142 H       
 133 H133          13.8511   -28.6973   -13.8933 H       
 134 H134          13.5392   -29.8429   -12.5672 H       
 135 H135          11.3092   -28.8198   -12.2079 H       
 136 H136          11.6212   -27.6741   -13.5340 H       
 137 H137          11.8545   -29.5691   -15.1162 H       
 138 H138          11.5425   -30.7147   -13.7902 H       
 139 H139           9.3125   -29.6916   -13.4309 H       
 140 H140           9.6245   -28.5460   -14.7569 H       
 141 H141           9.5964   -31.4784   -15.0536 H       
 142 H142           8.3667   -30.4548   -15.5074 H       
 143 H143          15.0205   -29.9147   -10.9247 H       
 144 H144          17.5515   -28.5272   -10.4816 H       
 145 H145          16.6796   -31.4134   -10.0140 H       
 146 H146          18.2687   -30.7520    -9.5607 H       
 147 H147          17.1568   -29.0688    -8.1187 H       
 148 H148          15.5677   -29.7302    -8.5721 H       
 149 H149          16.2084   -31.9259    -7.6145 H       
 150 H150          17.7975   -31.2646    -7.1612 H       
 151 H151          16.6857   -29.5814    -5.7192 H       
 152 H152          15.0965   -30.2427    -6.1725 H       
 153 H153          15.8818   -31.1606    -4.0918 H       
 154 H154          15.8345   -32.3625    -5.2404 H       
 155 H155          19.6047   -30.1154   -11.2061 H       
 156 H156          20.8351   -30.8719   -13.0228 H       
 157 H157          19.3207   -31.6271   -13.5748 H       
 158 H158          19.6917   -29.9452   -14.0239 H       
 159 O159          34.9122    17.2625    19.0550 O.3     
 160 C160          34.7971    15.8551    18.8357 C.3     
 161 C161          33.3265    15.4431    18.9278 C.3     
 162 C162          32.7605    15.8935    20.2499 C.2     
 163 N163          33.2975    15.4434    21.4012 N.am    
 164 C164          32.7472    15.8812    22.6864 C.3     
 165 C165          33.8103    15.7773    23.7495 C.2     
 166 N166          33.5296    16.1293    25.0199 N.am    
 167 C167          34.5631    16.0284    26.0533 C.3     
 168 C168          33.9105    15.8704    27.4025 C.2     
 169 N169          34.6707    15.7577    28.5097 N.am    
 170 C170          34.0391    15.7162    29.8309 C.3     
 171 C171          33.8329    17.1219    30.3334 C.2     
 172 N172          33.2633    17.3305    31.5370 N.am    
 173 C173          33.0629    18.6970    32.0256 C.3     
 174 C174          33.0093    18.6892    33.5316 C.2     
 175 N175          32.8306    19.8426    34.2055 N.am    
 176 C176          32.7785    19.8350    35.6696 C.3     
 177 C177          31.9951    21.0292    36.1506 C.2     
 178 N178          31.8153    21.2298    37.4711 N.am    
 179 N179          32.5750    16.0681    17.8365 N.am    
 180 O180          31.8219    16.6610    20.2778 O.2     
 181 C181          31.5608    14.9915    23.0629 C.3     
 182 C182          30.4317    15.1915    22.0500 C.3     
 183 S183          29.0251    14.1366    22.4964 S.3     
 184 C184          27.8097    14.5078    21.2020 C.3     
 185 O185          34.9184    15.3770    23.4619 O.2     
 186 C186          35.4177    17.2974    26.0456 C.3     
 187 C187          35.9798    17.5251    24.6409 C.3     
 188 O188          34.6130    18.4160    26.4237 O.3     
 189 O189          32.7013    15.8447    27.4920 O.2     
 190 C190          34.9410    14.9539    30.8037 C.3     
 191 C191          35.0573    13.5182    30.3608 C.2     
 192 O192          35.7326    12.6361    31.1142 O.3     
 193 O193          34.5427    13.1610    29.3276 O.2     
 194 O194          34.1794    18.0655    29.6549 O.2     
 195 C195          31.7480    19.2490    31.4713 C.3     
 196 C196          31.8483    19.3739    29.9497 C.3     
 197 C197          30.5335    19.9259    29.3955 C.3     
 198 C198          30.6338    20.0507    27.8739 C.3     
 199 N199          29.3714    20.5808    27.3417 N.3     
 200 O200          33.1269    17.6450    34.1372 O.2     
 201 C201          34.2004    19.8981    36.2309 C.3     
 202 C202          34.9461    18.6445    35.8520 C.ar    
 203 C203          35.6622    18.5980    34.6701 C.ar    
 204 C204          36.3466    17.4501    34.3205 C.ar    
 205 C205          36.3149    16.3433    35.1565 C.ar    
 206 C206          35.5957    16.3925    36.3418 C.ar    
 207 C207          34.9176    17.5448    36.6895 C.ar    
 208 O208          36.9870    15.2127    34.8146 O.3     
 209 O209          31.5265    21.8098    35.3493 O.2     
 210 C210          31.0538    22.3908    37.9387 C.3     
 211 C211          30.4666    22.0929    39.3197 C.3     
 212 C212          31.9660    23.5870    38.0280 C.2     
 213 O213          33.1369    23.4803    37.7305 O.2     
 214 N214          31.4806    24.7754    38.4386 N.am    
 215 C215          32.3674    25.9383    38.5255 C.3     
 216 C216          33.0760    25.9314    39.8555 C.2     
 217 N217          33.9481    26.9130    40.1595 N.am    
 218 C218          32.0338    27.4115    35.9519 C.3     
 219 C219          30.9229    27.2866    36.9965 C.3     
 220 C220          31.5421    27.2199    38.3940 C.3     
 221 C221          29.9984    28.5023    36.9057 C.3     
 222 O222          32.8614    25.0427    40.6524 O.2     
 223 C223          29.4462    20.9585    39.2062 C.3     
 224 C224          28.8589    20.6607    40.5872 C.3     
 225 N225          27.8818    19.5745    40.4785 N.pl3   
 226 C226          27.2194    19.1311    41.5986 C.2     
 227 N227          27.4606    19.6771    42.7573 N.2     
 228 N228          26.3025    18.1118    41.4966 N.pl3   
 229 C229          32.5303    15.4789    16.6252 C.2     
 230 O230          33.1122    14.4313    16.4386 O.2     
 231 C231          31.7573    16.1219    15.5026 C.3     
 232 N232          31.8573    15.2967    14.2899 N.am    
 233 C233          30.5052    14.8479    13.9107 C.3     
 234 C234          29.5500    15.8962    14.5338 C.3     
 235 C235          30.2625    16.2076    15.8765 C.3     
 236 C236          32.9963    15.0004    13.6332 C.2     
 237 O237          34.0575    15.4269    14.0368 O.2     
 238 C238          32.9513    14.1391    12.3974 C.3     
 239 N239          34.3084    13.9651    11.8737 N.am    
 240 C240          32.3614    12.7721    12.7497 C.3     
 241 C241          32.1998    11.9424    11.4744 C.3     
 242 C242          31.6100    10.5753    11.8267 C.3     
 243 N243          31.4553     9.7808    10.6056 N.pl3   
 244 C244          30.9402     8.5080    10.6743 C.2     
 245 N245          30.5704     7.9807    11.8889 N.pl3   
 246 N246          30.8026     7.8011     9.5878 N.2     
 247 C247          34.4967    13.6913    10.5676 C.2     
 248 C248          35.8927    13.5123    10.0289 C.3     
 249 O249          33.5427    13.5890     9.8257 O.2     
 250 C250          36.5732    12.3486    10.7524 C.3     
 251 C251          35.8265    13.2123     8.5301 C.3     
 252 C252          37.2445    13.1526     7.9587 C.3     
 253 C253          37.1865    12.7101     6.4952 C.3     
 254 C254          37.8889    14.5374     8.0477 C.3     
 255 H255          35.8193    17.5945    19.0111 H       
 256 H256          35.1821    15.6089    17.8461 H       
 257 H257          35.3721    15.3212    19.5924 H       
 258 H258          33.2473    14.3589    18.8491 H       
 259 H259          34.0482    14.8295    21.3789 H       
 260 H260          32.4142    16.9159    22.6055 H       
 261 H261          32.6433    16.4495    25.2499 H       
 262 H262          35.1951    15.1634    25.8519 H       
 263 H263          35.6361    15.7041    28.4318 H       
 264 H264          33.0757    15.2117    29.7573 H       
 265 H265          32.9861    16.5758    32.0797 H       
 266 H266          33.8892    19.3260    31.6947 H       
 267 H267          32.7365    20.6777    33.7212 H       
 268 H268          32.2933    18.9207    36.0112 H       
 269 H269          32.1901    20.6055    38.1120 H       
 270 H270          32.1097    16.9060    17.9858 H       
 271 H271          31.8735    13.9473    23.0571 H       
 272 H272          31.2074    15.2594    24.0587 H       
 273 H273          30.1191    16.2357    22.0559 H       
 274 H274          30.7851    14.9236    21.0543 H       
 275 H275          27.5627    15.5691    21.2291 H       
 276 H276          28.2287    14.2571    20.2275 H       
 277 H277          26.9074    13.9203    21.3715 H       
 278 H278          36.2400    17.1859    26.7523 H       
 279 H279          35.1575    17.6366    23.9342 H       
 280 H280          36.5887    18.4292    24.6354 H       
 281 H281          36.5937    16.6719    24.3525 H       
 282 H282          33.8605    18.5752    25.8376 H       
 283 H283          35.9302    15.4115    30.8165 H       
 284 H284          34.5102    14.9918    31.8042 H       
 285 H285          35.7799    11.7266    30.7891 H       
 286 H286          30.9330    18.5720    31.7274 H       
 287 H287          31.5547    20.2304    31.9044 H       
 288 H288          32.6633    20.0509    29.6937 H       
 289 H289          32.0416    18.3925    29.5166 H       
 290 H290          29.7185    19.2489    29.6515 H       
 291 H291          30.3402    20.9073    29.8286 H       
 292 H292          31.4488    20.7278    27.6178 H       
 293 H293          30.8271    19.0693    27.4408 H       
 294 H294          29.1371    21.4609    27.7760 H       
 295 H295          29.4124    20.6726    26.3377 H       
 296 H296          34.7155    20.7659    35.8188 H       
 297 H297          34.1590    19.9820    37.3168 H       
 298 H298          35.6862    19.4598    34.0195 H       
 299 H299          36.9055    17.4141    33.3971 H       
 300 H300          35.5695    15.5323    36.9942 H       
 301 H301          34.3578    17.5837    37.6123 H       
 302 H302          37.8980    15.1838    35.1377 H       
 303 H303          30.2459    22.6015    37.2380 H       
 304 H304          31.2662    21.7957    39.9982 H       
 305 H305          29.9755    22.9860    39.7060 H       
 306 H306          30.5441    24.8607    38.6766 H       
 307 H307          33.1025    25.8955    37.7219 H       
 308 H308          34.1197    27.6238    39.5222 H       
 309 H309          34.4042    26.9085    41.0155 H       
 310 H310          31.5927    27.4590    34.9562 H       
 311 H311          32.6077    28.3191    36.1386 H       
 312 H312          32.6924    26.5454    36.0165 H       
 313 H313          30.3489    26.3789    36.8097 H       
 314 H314          30.7500    27.2205    39.1427 H       
 315 H315          32.1874    28.0849    38.5471 H       
 316 H316          29.5573    28.5498    35.9101 H       
 317 H317          29.2070    28.4133    37.6499 H       
 318 H318          30.5724    29.4100    37.0925 H       
 319 H319          28.6465    21.2557    38.5277 H       
 320 H320          29.9373    20.0654    38.8198 H       
 321 H321          29.6585    20.3635    41.2657 H       
 322 H322          28.3678    21.5538    40.9735 H       
 323 H323          27.7023    19.1682    39.6162 H       
 324 H324          26.9932    19.3643    43.5476 H       
 325 H325          26.1229    17.7055    40.6343 H       
 326 H326          25.8351    17.7990    42.2869 H       
 327 H327          32.1503    17.1193    15.3058 H       
 328 H328          30.3997    14.8360    12.8259 H       
 329 H329          30.3042    13.8591    14.3231 H       
 330 H330          29.4869    16.7873    13.9092 H       
 331 H331          28.5614    15.4706    14.7057 H       
 332 H332          30.0098    15.4610    16.6294 H       
 333 H333          30.0088    17.2089    16.2246 H       
 334 H334          32.3292    14.6196    11.6422 H       
 335 H335          35.0714    14.0470    12.4670 H       
 336 H336          33.0297    12.2544    13.4377 H       
 337 H337          31.3879    12.9070    13.2211 H       
 338 H338          31.5315    12.4601    10.7863 H       
 339 H339          33.1733    11.8075    11.0029 H       
 340 H340          32.2783    10.0576    12.5148 H       
 341 H341          30.6365    10.7102    12.2981 H       
 342 H342          31.7162    10.1529     9.7486 H       
 343 H343          30.6728     8.5067    12.6974 H       
 344 H344          30.2070     7.0826    11.9374 H       
 345 H345          30.4393     6.9031     9.6363 H       
 346 H346          36.4649    14.4257    10.1916 H       
 347 H347          36.0615    11.4183    10.5057 H       
 348 H348          37.6150    12.2846    10.4381 H       
 349 H349          36.5280    12.5137    11.8289 H       
 350 H350          35.3308    12.2543     8.3729 H       
 351 H351          35.2647    13.9990     8.0265 H       
 352 H352          37.8370    12.4387     8.5309 H       
 353 H353          36.6515    11.7632     6.4229 H       
 354 H354          36.6671    13.4668     5.9072 H       
 355 H355          38.1996    12.5852     6.1130 H       
 356 H356          37.9303    14.8526     9.0903 H       
 357 H357          38.8992    14.4949     7.6406 H       
 358 H358          37.2964    15.2513     7.4755 H       
@<TRIPOS>BOND
   1    1    2 1
   2    1   72 1
   3    1   73 1
   4    1   74 1
   5    2    3 1
   6    2   75 1
   7    2   76 1
   8    3    4 1
   9    3   77 1
  10    3   78 1
  11    4    5 1
  12    4   79 1
  13    4   80 1
  14    5    6 1
  15    5   81 1
  16    5   82 1
  17    6    7 1
  18    6   83 1
  19    6   84 1
  20    7    8 1
  21    7   85 1
  22    7   86 1
  23    8    9 1
  24    8   87 1
  25    8   88 1
  26    9   10 1
  27    9   89 1
  28    9   90 1
  29   10   11 1
  30   10   91 1
  31   10   92 1
  32   11   12 1
  33   11   93 1
  34   11   94 1
  35   12   13 1
  36   12   95 1
  37   12   96 1
  38   13   14 1
  39   13   97 1
  40   13   98 1
  41   14   15 1
  42   14   99 1
  43   14  100 1
  44   15   16 1
  45   15  101 1
  46   15  102 1
  47   16   17 am
  48   16   18 2
  49   17   19 1
  50   17   20 1
  51   19   21 1
  52   19   22 1
  53   19  103 1
  54   21   26 am
  55   21   27 2
  56   22   23 1
  57   22  104 1
  58   22  105 1
  59   23   24 1
  60   23  106 1
  61   23  107 1
  62   24   25 1
  63   25  108 1
  64   25  109 1
  65   25  110 1
  66   26   28 1
  67   26  111 1
  68   28   29 1
  69   28  112 1
  70   28  113 1
  71   29   30 am
  72   29   31 2
  73   30   32 1
  74   30  114 1
  75   32   33 1
  76   32   37 1
  77   32  115 1
  78   33   34 1
  79   33  116 1
  80   33  117 1
  81   34   35 ar
  82   34   38 ar
  83   35   41 ar
  84   35  118 1
  85   36   37 am
  86   36   43 1
  87   36  119 1
  88   37   42 2
  89   38   39 ar
  90   38  120 1
  91   39   40 ar
  92   39  121 1
  93   40   41 ar
  94   40   44 1
  95   41  122 1
  96   43   45 1
  97   43   46 1
  98   43  123 1
  99   44  124 1
 100   45   49 1
 101   45  125 1
 102   45  126 1
 103   46   47 am
 104   46   48 2
 105   47   53 1
 106   47  127 1
 107   49   50 1
 108   49  128 1
 109   49  129 1
 110   50   51 2
 111   50   52 am
 112   52  130 1
 113   52  131 1
 114   53   54 1
 115   53   55 1
 116   53  132 1
 117   54   56 1
 118   54  133 1
 119   54  134 1
 120   55   60 am
 121   55   61 2
 122   56   57 1
 123   56  135 1
 124   56  136 1
 125   57   58 1
 126   57  137 1
 127   57  138 1
 128   58   59 1
 129   58  139 1
 130   58  140 1
 131   59  141 1
 132   59  142 1
 133   60   62 1
 134   60  143 1
 135   62   63 1
 136   62   64 1
 137   62  144 1
 138   63   69 2
 139   63   70 am
 140   64   65 1
 141   64  145 1
 142   64  146 1
 143   65   66 1
 144   65  147 1
 145   65  148 1
 146   66   67 1
 147   66  149 1
 148   66  150 1
 149   67   68 1
 150   67  151 1
 151   67  152 1
 152   68  153 1
 153   68  154 1
 154   70   71 1
 155   70  155 1
 156   71  156 1
 157   71  157 1
 158   71  158 1
 159  159  160 1
 160  159  255 1
 161  160  161 1
 162  160  256 1
 163  160  257 1
 164  161  162 1
 165  161  179 1
 166  161  258 1
 167  162  163 am
 168  162  180 2
 169  163  164 1
 170  163  259 1
 171  164  165 1
 172  164  181 1
 173  164  260 1
 174  165  166 am
 175  165  185 2
 176  166  167 1
 177  166  261 1
 178  167  168 1
 179  167  186 1
 180  167  262 1
 181  168  169 am
 182  168  189 2
 183  169  170 1
 184  169  263 1
 185  170  171 1
 186  170  190 1
 187  170  264 1
 188  171  172 am
 189  171  194 2
 190  172  173 1
 191  172  265 1
 192  173  174 1
 193  173  195 1
 194  173  266 1
 195  174  175 am
 196  174  200 2
 197  175  176 1
 198  175  267 1
 199  176  177 1
 200  176  201 1
 201  176  268 1
 202  177  178 am
 203  177  209 2
 204  178  210 1
 205  178  269 1
 206  179  229 am
 207  179  270 1
 208  181  182 1
 209  181  271 1
 210  181  272 1
 211  182  183 1
 212  182  273 1
 213  182  274 1
 214  183  184 1
 215  184  275 1
 216  184  276 1
 217  184  277 1
 218  186  187 1
 219  186  188 1
 220  186  278 1
 221  187  279 1
 222  187  280 1
 223  187  281 1
 224  188  282 1
 225  190  191 1
 226  190  283 1
 227  190  284 1
 228  191  192 1
 229  191  193 2
 230  192  285 1
 231  195  196 1
 232  195  286 1
 233  195  287 1
 234  196  197 1
 235  196  288 1
 236  196  289 1
 237  197  198 1
 238  197  290 1
 239  197  291 1
 240  198  199 1
 241  198  292 1
 242  198  293 1
 243  199  294 1
 244  199  295 1
 245  201  202 1
 246  201  296 1
 247  201  297 1
 248  202  203 ar
 249  202  207 ar
 250  203  204 ar
 251  203  298 1
 252  204  205 ar
 253  204  299 1
 254  205  206 ar
 255  205  208 1
 256  206  207 ar
 257  206  300 1
 258  207  301 1
 259  208  302 1
 260  210  211 1
 261  210  212 1
 262  210  303 1
 263  211  223 1
 264  211  304 1
 265  211  305 1
 266  212  213 2
 267  212  214 am
 268  214  215 1
 269  214  306 1
 270  215  216 1
 271  215  220 1
 272  215  307 1
 273  216  217 am
 274  216  222 2
 275  217  308 1
 276  217  309 1
 277  218  219 1
 278  218  310 1
 279  218  311 1
 280  218  312 1
 281  219  220 1
 282  219  221 1
 283  219  313 1
 284  220  314 1
 285  220  315 1
 286  221  316 1
 287  221  317 1
 288  221  318 1
 289  223  224 1
 290  223  319 1
 291  223  320 1
 292  224  225 1
 293  224  321 1
 294  224  322 1
 295  225  226 1
 296  225  323 1
 297  226  227 2
 298  226  228 1
 299  227  324 1
 300  228  325 1
 301  228  326 1
 302  229  230 2
 303  229  231 1
 304  231  232 1
 305  231  235 1
 306  231  327 1
 307  232  233 1
 308  232  236 am
 309  233  234 1
 310  233  328 1
 311  233  329 1
 312  234  235 1
 313  234  330 1
 314  234  331 1
 315  235  332 1
 316  235  333 1
 317  236  237 2
 318  236  238 1
 319  238  239 1
 320  238  240 1
 321  238  334 1
 322  239  247 am
 323  239  335 1
 324  240  241 1
 325  240  336 1
 326  240  337 1
 327  241  242 1
 328  241  338 1
 329  241  339 1
 330  242  243 1
 331  242  340 1
 332  242  341 1
 333  243  244 1
 334  243  342 1
 335  244  245 1
 336  244  246 2
 337  245  343 1
 338  245  344 1
 339  246  345 1
 340  247  248 1
 341  247  249 2
 342  248  250 1
 343  248  251 1
 344  248  346 1
 345  250  347 1
 346  250  348 1
 347  250  349 1
 348  251  252 1
 349  251  350 1
 350  251  351 1
 351  252  253 1
 352  252  254 1
 353  252  352 1
 354  253  353 1
 355  253  354 1
 356  253  355 1
 357  254  356 1
 358  254  357 1
 359  254  358 1

#	End of record

