#	Name: ASD01912977
#	Creating user name:	WinNT
#	Creation time:	15. 06. 2019 20:00

#	Modifying user name:	WinNT
#	Modification time:	15. 06. 2019 20:00

#	Program:	/corina/corina34_cracker 3.40 0067  02.08.2006

@<TRIPOS>MOLECULE
ASD01912977
  41   44    0    0    0
SMALL
NO_CHARGES


@<TRIPOS>ATOM
   1 C1            -0.0173     1.4278     0.0099 C.2     
   2 C2             0.0021    -0.0041     0.0020 C.1     
   3 C3             0.0180    -1.1779    -0.0044 C.1     
   4 C4             0.0374    -2.6098    -0.0123 C.ar    
   5 C5            -1.1620    -3.3282    -0.0047 C.ar    
   6 C6             1.2558    -3.2953    -0.0335 C.ar    
   7 C7             1.2677    -4.6737    -0.0414 C.ar    
   8 C8             0.0750    -5.3801    -0.0290 C.ar    
   9 C9            -1.1365    -4.7064    -0.0128 C.ar    
  10 N10            1.0315     2.1979     0.0040 N.2     
  11 C11            0.8404     3.5063     0.0148 C.2     
  12 C12           -0.4581     3.8737     0.0251 C.2     
  13 S13           -1.4644     2.4309     0.0214 S.3     
  14 C14            1.9816     4.5151     0.0230 C.3     
  15 C15            1.4539     5.8745    -0.4398 C.3     
  16 N16            0.2049     6.1748     0.2761 N.am    
  17 C17           -0.9552     5.3022     0.0279 C.3     
  18 C18            0.1248     7.2136     1.1310 C.2     
  19 C19           -1.1678     7.4985     1.8515 C.3     
  20 O20            1.0930     7.9190     1.3206 O.2     
  21 C21           -1.0951     8.7152     2.7892 C.3     
  22 C22           -2.5075     9.0773     2.3005 C.3     
  23 C23           -2.1754     8.3034     1.0137 C.3     
  24 F24           -3.5292     8.4938     3.0575 F       
  25 F25           -2.6958    10.4485     2.0969 F       
  26 F26            0.0933    -6.7310    -0.0373 F       
  27 H27           -2.1065    -2.8045     0.0078 H       
  28 H28            2.1857    -2.7460    -0.0439 H       
  29 H29            2.2081    -5.2044    -0.0578 H       
  30 H30           -2.0622    -5.2626    -0.0032 H       
  31 H31            2.3816     4.6043     1.0330 H       
  32 H32            2.7684     4.1804    -0.6531 H       
  33 H33            2.1931     6.6456    -0.2224 H       
  34 H34            1.2612     5.8448    -1.5123 H       
  35 H35           -1.3985     5.5418    -0.9386 H       
  36 H36           -1.6941     5.4354     0.8181 H       
  37 H37           -1.5962     6.6119     2.3189 H       
  38 H38           -1.0532     8.4503     3.8457 H       
  39 H39           -0.3346     9.4419     2.5034 H       
  40 H40           -1.7103     8.9174     0.2426 H       
  41 H41           -3.0056     7.7060     0.6369 H       
@<TRIPOS>BOND
   1    1    2 1
   2    1   10 2
   3    1   13 1
   4    2    3 3
   5    3    4 1
   6    4    5 ar
   7    4    6 ar
   8    5    9 ar
   9    5   27 1
  10    6    7 ar
  11    6   28 1
  12    7    8 ar
  13    7   29 1
  14    8    9 ar
  15    8   26 1
  16    9   30 1
  17   10   11 1
  18   11   12 2
  19   11   14 1
  20   12   13 1
  21   12   17 1
  22   14   15 1
  23   14   31 1
  24   14   32 1
  25   15   16 1
  26   15   33 1
  27   15   34 1
  28   16   17 1
  29   16   18 am
  30   17   35 1
  31   17   36 1
  32   18   19 1
  33   18   20 2
  34   19   21 1
  35   19   23 1
  36   19   37 1
  37   21   22 1
  38   21   38 1
  39   21   39 1
  40   22   23 1
  41   22   24 1
  42   22   25 1
  43   23   40 1
  44   23   41 1

#	End of record

