#	Name: ASD01180033
#	Creating user name:	WinNT
#	Creation time:	15. 06. 2019 19:06

#	Modifying user name:	WinNT
#	Modification time:	15. 06. 2019 19:06

#	Program:	/corina/corina34_cracker 3.40 0067  02.08.2006

@<TRIPOS>MOLECULE
ASD01180033
  37   39    0    0    0
SMALL
NO_CHARGES


@<TRIPOS>ATOM
   1 N1             0.0654     1.2382     0.5149 N.ar    
   2 C2             0.0456    -0.0397     0.2224 C.ar    
   3 C3             1.1823    -0.6689    -0.3155 C.ar    
   4 N4             2.2875     0.0178    -0.5339 N.ar    
   5 C5             2.3248     1.3239    -0.2408 C.ar    
   6 C6             3.4865     2.0817    -0.4624 C.ar    
   7 C7             3.4965     3.4091    -0.1555 C.ar    
   8 C8             2.3661     4.0297     0.3775 C.ar    
   9 C9             1.2228     3.3247     0.6052 C.ar    
  10 C10            1.1767     1.9541     0.3007 C.ar    
  11 S11           -1.4188    -0.9775     0.5066 S.o2    
  12 O12           -0.9442    -2.2546     0.9105 O.2     
  13 O13           -2.1871    -0.1693     1.3873 O.2     
  14 C14           -2.2140    -1.0793    -1.1207 C.3     
  15 Cl15           2.4175     5.7230     0.7564 Cl      
  16 Cl16           4.9351     4.3409    -0.4309 Cl      
  17 S17            3.3374    -4.0861    -3.1425 S.o2    
  18 C18            2.3566    -2.7106    -1.0601 C.3     
  19 C19            2.2471    -4.2166    -0.7354 C.3     
  20 C20            3.3883    -4.9223    -1.5123 C.3     
  21 C21            2.5253    -2.5454    -2.5835 C.3     
  22 O22            4.6628    -3.7938    -3.5634 O.2     
  23 N23            1.1414    -2.0218    -0.6184 N.pl3   
  24 O24            2.4600    -4.7939    -4.0076 O.2     
  25 H25            4.3685     1.6139    -0.8742 H       
  26 H26            0.3553     3.8175     1.0186 H       
  27 H27           -1.5432    -1.5749    -1.8225 H       
  28 H28           -3.1391    -1.6497    -1.0379 H       
  29 H29           -2.4374    -0.0746    -1.4794 H       
  30 H30            3.2216    -2.2875    -0.5492 H       
  31 H31            2.3675    -4.3772     0.3360 H       
  32 H32            1.2814    -4.6002    -1.0646 H       
  33 H33            3.1836    -5.9877    -1.6174 H       
  34 H34            4.3485    -4.7582    -1.0231 H       
  35 H35            3.1549    -1.6832    -2.8033 H       
  36 H36            1.5522    -2.4364    -3.0625 H       
  37 H37            0.3083    -2.5120    -0.5377 H       
@<TRIPOS>BOND
   1    1    2 ar
   2    1   10 ar
   3    2    3 ar
   4    2   11 1
   5    3    4 ar
   6    3   23 1
   7    4    5 ar
   8    5    6 ar
   9    5   10 ar
  10    6    7 ar
  11    6   25 1
  12    7    8 ar
  13    7   16 1
  14    8    9 ar
  15    8   15 1
  16    9   10 ar
  17    9   26 1
  18   11   12 2
  19   11   13 2
  20   11   14 1
  21   14   27 1
  22   14   28 1
  23   14   29 1
  24   17   22 2
  25   17   24 2
  26   17   20 1
  27   17   21 1
  28   18   19 1
  29   18   21 1
  30   18   23 1
  31   18   30 1
  32   19   20 1
  33   19   31 1
  34   19   32 1
  35   20   33 1
  36   20   34 1
  37   21   35 1
  38   21   36 1
  39   23   37 1

#	End of record

