#	Name: ASD01001219
#	Creating user name:	WinNT
#	Creation time:	15. 06. 2019 18:55

#	Modifying user name:	WinNT
#	Modification time:	15. 06. 2019 18:55

#	Program:	/corina/corina34_cracker 3.40 0067  02.08.2006

@<TRIPOS>MOLECULE
ASD01001219
  39   41    0    0    0
SMALL
NO_CHARGES


@<TRIPOS>ATOM
   1 C1            -0.0264     1.4753    -0.0890 C.3     
   2 C2             0.0156    -0.0565    -0.0963 C.3     
   3 C3             0.8470    -0.5115    -1.2976 C.3     
   4 C4             2.2355     0.0733    -1.2043 C.2     
   5 C5             2.4476     1.2683    -0.6159 C.2     
   6 C6             1.3818     2.0026    -0.0634 C.2     
   7 O7             1.6036     3.0842     0.4439 O.2     
   8 C8             3.8305     1.8594    -0.5277 C.3     
   9 N9             4.8331     0.9963    -1.1300 N.am    
  10 C10            4.5340    -0.1818    -1.6910 C.2     
  11 S11            5.7906    -1.1253    -2.3704 S.2     
  12 N12            3.2761    -0.6417    -1.7337 N.am    
  13 C13            3.8405     3.1897    -1.2357 C.ar    
  14 C14            4.8556     4.0963    -0.9889 C.ar    
  15 C15            4.8671     5.3184    -1.6377 C.ar    
  16 C16            3.8647     5.6352    -2.5336 C.ar    
  17 C17            2.8459     4.7270    -2.7828 C.ar    
  18 C18            2.8388     3.5005    -2.1351 C.ar    
  19 O19            1.8583     5.0370    -3.6638 O.3     
  20 C20            0.6601    -0.5603     1.1967 C.3     
  21 C21           -1.4058    -0.6103    -0.2140 C.3     
  22 Br22           6.2292     3.6652     0.2371 Br      
  23 H23           -0.5328     1.8307    -0.9863 H       
  24 H24           -0.5617     1.8214     0.7952 H       
  25 H25            0.9111    -1.5996    -1.3032 H       
  26 H26            0.3713    -0.1718    -2.2176 H       
  27 H27            4.0824     2.0163     0.5212 H       
  28 H28            5.7586     1.2866    -1.1256 H       
  29 H29            3.0989    -1.5003    -2.1489 H       
  30 H30            5.6602     6.0252    -1.4431 H       
  31 H31            3.8739     6.5894    -3.0395 H       
  32 H32            2.0468     2.7921    -2.3280 H       
  33 H33            2.0473     4.7742    -4.5750 H       
  34 H34            0.0757    -0.2188     2.0510 H       
  35 H35            0.6883    -1.6499     1.1880 H       
  36 H36            1.6755    -0.1712     1.2722 H       
  37 H37           -1.8579    -0.2566    -1.1406 H       
  38 H38           -1.3720    -1.6997    -0.2189 H       
  39 H39           -2.0000    -0.2690     0.6337 H       
@<TRIPOS>BOND
   1    1    2 1
   2    1    6 1
   3    1   23 1
   4    1   24 1
   5    2    3 1
   6    2   20 1
   7    2   21 1
   8    3    4 1
   9    3   25 1
  10    3   26 1
  11    4    5 2
  12    4   12 1
  13    5    6 1
  14    5    8 1
  15    6    7 2
  16    8    9 1
  17    8   13 1
  18    8   27 1
  19    9   10 am
  20    9   28 1
  21   10   11 2
  22   10   12 am
  23   12   29 1
  24   13   14 ar
  25   13   18 ar
  26   14   15 ar
  27   14   22 1
  28   15   16 ar
  29   15   30 1
  30   16   17 ar
  31   16   31 1
  32   17   18 ar
  33   17   19 1
  34   18   32 1
  35   19   33 1
  36   20   34 1
  37   20   35 1
  38   20   36 1
  39   21   37 1
  40   21   38 1
  41   21   39 1

#	End of record

