#	Name: ASD00431012
#	Creating user name:	WinNT
#	Creation time:	15. 06. 2019 18:35

#	Modifying user name:	WinNT
#	Modification time:	15. 06. 2019 18:35

#	Program:	/corina/corina34_cracker 3.40 0067  02.08.2006

@<TRIPOS>MOLECULE
ASD00431012
  24   25    0    0    0
SMALL
NO_CHARGES


@<TRIPOS>ATOM
   1 C1            -0.0166     1.3726     0.0096 C.ar    
   2 N2             0.0021    -0.0041     0.0020 N.pl3   
   3 C3             1.2950    -0.4517    -0.0127 C.2     
   4 C4             2.1403     0.5912    -0.0152 C.2     
   5 C5             1.3217     1.8059    -0.0009 C.ar    
   6 C6             1.6119     3.1717     0.0044 C.ar    
   7 C7             0.5928     4.0816     0.0197 C.ar    
   8 C8            -0.7296     3.6591     0.0300 C.ar    
   9 C9            -1.0384     2.3167     0.0295 C.ar    
  10 C10            3.6457     0.5248    -0.0299 C.3     
  11 C11            4.1744     0.6196     1.4027 C.3     
  12 N12            5.6419     0.5550     1.3884 N.3     
  13 H13           -0.7842    -0.5721     0.0068 H       
  14 H14            1.5915    -1.4901    -0.0211 H       
  15 H15            2.6383     3.5077    -0.0033 H       
  16 H16            0.8178     5.1379     0.0241 H       
  17 H17           -1.5243     4.3904     0.0424 H       
  18 H18           -2.0703     1.9980     0.0376 H       
  19 H19            3.9635    -0.4191    -0.4727 H       
  20 H20            4.0402     1.3532    -0.6183 H       
  21 H21            3.8567     1.5636     1.8455 H       
  22 H22            3.7800    -0.2088     1.9912 H       
  23 H23            6.0298     1.2743     0.7966 H       
  24 H24            6.0157     0.6156     2.3236 H       
@<TRIPOS>BOND
   1    1    2 1
   2    1    5 ar
   3    1    9 ar
   4    2    3 1
   5    2   13 1
   6    3    4 2
   7    3   14 1
   8    4    5 1
   9    4   10 1
  10    5    6 ar
  11    6    7 ar
  12    6   15 1
  13    7    8 ar
  14    7   16 1
  15    8    9 ar
  16    8   17 1
  17    9   18 1
  18   10   11 1
  19   10   19 1
  20   10   20 1
  21   11   12 1
  22   11   21 1
  23   11   22 1
  24   12   23 1
  25   12   24 1

#	End of record

