#	Name: ASD09740013
#	Creating user name:	WinNT
#	Creation time:	15. 06. 2019 21:22

#	Modifying user name:	WinNT
#	Modification time:	15. 06. 2019 21:22

#	Program:	/corina/corina34_cracker 3.40 0067  02.08.2006

@<TRIPOS>MOLECULE
ASD09740013
  40   42    0    0    0
SMALL
NO_CHARGES


@<TRIPOS>ATOM
   1 N1            -0.0144     1.2085     0.0087 N.2     
   2 O2             0.0021    -0.0041     0.0020 O.3     
   3 C3             1.2056     1.6802    -0.0004 C.2     
   4 N4             2.0459     0.6248    -0.0141 N.2     
   5 C5             1.2702    -0.4439    -0.0125 C.2     
   6 C6             1.7131    -1.8527    -0.0238 C.ar    
   7 C7             0.7696    -2.8831    -0.0204 C.ar    
   8 C8             3.0753    -2.1577    -0.0438 C.ar    
   9 C9             3.4873    -3.4736    -0.0549 C.ar    
  10 C10            2.5506    -4.4971    -0.0462 C.ar    
  11 C11            1.1889    -4.1995    -0.0315 C.ar    
  12 C12            1.5942     3.1136     0.0031 C.ar    
  13 C13            0.6251     4.1196     0.0178 C.ar    
  14 C14            1.0297     5.4394     0.0211 C.ar    
  15 N15            2.3103     5.7548     0.0102 N.ar    
  16 C16            3.2562     4.8359    -0.0039 C.ar    
  17 C17            2.9388     3.4924    -0.0023 C.ar    
  18 O18            0.2731    -5.2049    -0.0227 O.3     
  19 C19           -1.9781    -6.0836     0.0004 C.3     
  20 C20           -1.1049    -4.8272    -0.0078 C.3     
  21 O21            2.9614    -5.7921    -0.0572 O.3     
  22 C22            4.6387    -7.5317    -0.0874 C.3     
  23 C23            4.3711    -6.0254    -0.0775 C.3     
  24 H24           -0.2851    -2.6511    -0.0087 H       
  25 H25            3.8066    -1.3629    -0.0510 H       
  26 H26            4.5414    -3.7081    -0.0707 H       
  27 H27           -0.4252     3.8685     0.0261 H       
  28 H28            0.2878     6.2241     0.0324 H       
  29 H29            4.2929     5.1384    -0.0128 H       
  30 H30            3.7185     2.7451    -0.0138 H       
  31 H31           -3.0293    -5.7954     0.0118 H       
  32 H32           -1.7729    -6.6744    -0.8923 H       
  33 H33           -1.7541    -6.6759     0.8876 H       
  34 H34           -1.3101    -4.2363     0.8849 H       
  35 H35           -1.3289    -4.2349    -0.8950 H       
  36 H36            5.7139    -7.7097    -0.1029 H       
  37 H37            4.2086    -7.9830     0.8068 H       
  38 H38            4.1841    -7.9757    -0.9730 H       
  39 H39            4.8012    -5.5741    -0.9717 H       
  40 H40            4.8257    -5.5814     0.8081 H       
@<TRIPOS>BOND
   1    1    2 1
   2    1    3 2
   3    2    5 1
   4    3    4 1
   5    3   12 1
   6    4    5 2
   7    5    6 1
   8    6    7 ar
   9    6    8 ar
  10    7   11 ar
  11    7   24 1
  12    8    9 ar
  13    8   25 1
  14    9   10 ar
  15    9   26 1
  16   10   11 ar
  17   10   21 1
  18   11   18 1
  19   12   13 ar
  20   12   17 ar
  21   13   14 ar
  22   13   27 1
  23   14   15 ar
  24   14   28 1
  25   15   16 ar
  26   16   17 ar
  27   16   29 1
  28   17   30 1
  29   18   20 1
  30   19   20 1
  31   19   31 1
  32   19   32 1
  33   19   33 1
  34   20   34 1
  35   20   35 1
  36   21   23 1
  37   22   23 1
  38   22   36 1
  39   22   37 1
  40   22   38 1
  41   23   39 1
  42   23   40 1

#	End of record

