#	Name: ASD03092723
#	Creating user name:	WinNT
#	Creation time:	15. 06. 2019 20:33

#	Modifying user name:	WinNT
#	Modification time:	15. 06. 2019 20:33

#	Program:	/corina/corina34_cracker 3.40 0067  02.08.2006

@<TRIPOS>MOLECULE
ASD03092723
  54   56    0    0    0
SMALL
NO_CHARGES


@<TRIPOS>ATOM
   1 C1             0.3322     1.3799    -0.0444 C.2     
   2 O2             1.0237     1.3395    -1.0440 O.2     
   3 C3             0.8027     0.7482     1.2049 C.ar    
   4 C4             1.9795    -0.0051     1.2098 C.ar    
   5 C5             2.4140    -0.5918     2.3786 C.ar    
   6 C6             1.6855    -0.4361     3.5483 C.ar    
   7 C7             0.5165     0.3101     3.5492 C.ar    
   8 C8             0.0758     0.9065     2.3876 C.ar    
   9 F9             2.1159    -1.0139     4.6911 F       
  10 C10           -2.1678     1.3235    -0.1294 C.ar    
  11 C11           -0.9723     2.0643    -0.0780 C.ar    
  12 C12           -1.0433     3.4608    -0.0589 C.ar    
  13 C13           -2.3029     4.0582    -0.0919 C.ar    
  14 C14           -3.4395     3.2513    -0.1424 C.ar    
  15 N15           -3.3406     1.9378    -0.1592 N.ar    
  16 N16           -2.1173    -0.0572    -0.1547 N.3     
  17 C17           -2.7425    -0.6289     1.0454 C.3     
  18 C18           -2.4509    -2.1297     1.1066 C.3     
  19 C19           -3.1021    -2.7252     2.3565 C.3     
  20 C20           -2.7413    -0.5845    -1.3755 C.3     
  21 C21           -2.4326     5.5362    -0.0731 C.ar    
  22 C22           -3.6946     6.1268    -0.1063 C.ar    
  23 C23           -3.8120     7.5009    -0.0882 C.ar    
  24 C24           -2.6749     8.2955    -0.0374 C.ar    
  25 C25           -1.4166     7.7101    -0.0043 C.ar    
  26 C26           -1.2930     6.3365    -0.0164 C.ar    
  27 O27           -2.7937     9.6491    -0.0206 O.3     
  28 C28           -1.5828    10.4061     0.0321 C.3     
  29 C29           -1.9150    11.8995     0.0438 C.3     
  30 H30            2.5473    -0.1276     0.2993 H       
  31 H31            3.3235    -1.1743     2.3836 H       
  32 H32           -0.0471     0.4277     4.4629 H       
  33 H33           -0.8323     1.4911     2.3905 H       
  34 H34           -0.1462     4.0608    -0.0193 H       
  35 H35           -4.4165     3.7108    -0.1680 H       
  36 H36           -2.3367    -0.1435     1.9329 H       
  37 H37           -3.8201    -0.4696     1.0047 H       
  38 H38           -2.8568    -2.6151     0.2191 H       
  39 H39           -1.3734    -2.2890     1.1473 H       
  40 H40           -2.8944    -3.7943     2.4001 H       
  41 H41           -2.6963    -2.2397     3.2440 H       
  42 H42           -4.1797    -2.5658     2.3158 H       
  43 H43           -2.1704    -0.2592    -2.2451 H       
  44 H44           -2.7538    -1.6738    -1.3358 H       
  45 H45           -3.7629    -0.2120    -1.4515 H       
  46 H46           -4.5796     5.5091    -0.1465 H       
  47 H47           -4.7896     7.9591    -0.1139 H       
  48 H48           -0.5337     8.3309     0.0348 H       
  49 H49           -0.3140     5.8816     0.0136 H       
  50 H50           -1.0327    10.1491     0.9373 H       
  51 H51           -0.9725    10.1765    -0.8414 H       
  52 H52           -0.9913    12.4769     0.0840 H       
  53 H53           -2.4650    12.1565    -0.8614 H       
  54 H54           -2.5253    12.1291     0.9173 H       
@<TRIPOS>BOND
   1    1    2 2
   2    1    3 1
   3    1   11 1
   4    3    4 ar
   5    3    8 ar
   6    4    5 ar
   7    4   30 1
   8    5    6 ar
   9    5   31 1
  10    6    7 ar
  11    6    9 1
  12    7    8 ar
  13    7   32 1
  14    8   33 1
  15   10   11 ar
  16   10   15 ar
  17   10   16 1
  18   11   12 ar
  19   12   13 ar
  20   12   34 1
  21   13   14 ar
  22   13   21 1
  23   14   15 ar
  24   14   35 1
  25   16   17 1
  26   16   20 1
  27   17   18 1
  28   17   36 1
  29   17   37 1
  30   18   19 1
  31   18   38 1
  32   18   39 1
  33   19   40 1
  34   19   41 1
  35   19   42 1
  36   20   43 1
  37   20   44 1
  38   20   45 1
  39   21   22 ar
  40   21   26 ar
  41   22   23 ar
  42   22   46 1
  43   23   24 ar
  44   23   47 1
  45   24   25 ar
  46   24   27 1
  47   25   26 ar
  48   25   48 1
  49   26   49 1
  50   27   28 1
  51   28   29 1
  52   28   50 1
  53   28   51 1
  54   29   52 1
  55   29   53 1
  56   29   54 1

#	End of record

