#	Name: ASD01230168
#	Creating user name:	WinNT
#	Creation time:	15. 06. 2019 19:11

#	Modifying user name:	WinNT
#	Modification time:	15. 06. 2019 19:11

#	Program:	/corina/corina34_cracker 3.40 0067  02.08.2006

@<TRIPOS>MOLECULE
ASD01230168
  36   38    0    0    0
SMALL
NO_CHARGES


@<TRIPOS>ATOM
   1 S1            -0.9331     1.1456    -2.2874 S.o2    
   2 N2            -0.6485    -0.3345    -1.6048 N.am    
   3 C3             0.5469    -0.8639    -1.5579 C.2     
   4 N4             1.6891    -0.2927    -2.0478 N.pl3   
   5 C5             1.7220     0.9856    -2.7634 C.3     
   6 C6             0.6932     1.9568    -2.1777 C.3     
   7 C7             0.6417    -2.1935    -0.9132 C.2     
   8 C8             1.8852    -2.7959    -0.7946 C.2     
   9 C9             3.0075    -2.1299    -1.2894 C.2     
  10 C10            2.8903    -0.9259    -1.8849 C.2     
  11 C11           -0.5626    -2.8639    -0.4068 C.2     
  12 O12           -1.6328    -2.2849    -0.4213 O.2     
  13 N13           -0.4826    -4.1204     0.0741 N.am    
  14 C14           -2.5232    -3.9576     1.3653 C.ar    
  15 C15           -1.6053    -4.7200     0.6541 C.ar    
  16 C16           -1.8196    -6.0901     0.5266 C.ar    
  17 C17           -2.9463    -6.6377     1.1184 C.ar    
  18 C18           -3.8138    -5.8134     1.8103 C.ar    
  19 N19           -3.5823    -4.5191     1.9127 N.ar    
  20 C20           -5.0417    -6.4020     2.4561 C.3     
  21 F21           -4.7378    -6.7946     3.7641 F       
  22 F22           -6.0601    -5.4432     2.4817 F       
  23 F23           -5.4668    -7.5145     1.7222 F       
  24 O24           -1.2633     0.8584    -3.6393 O.2     
  25 O25           -1.8669     1.7678    -1.4155 O.2     
  26 H26            2.7175     1.4208    -2.6763 H       
  27 H27            1.4960     0.8143    -3.8159 H       
  28 H28            0.6862     2.8824    -2.7534 H       
  29 H29            0.9334     2.1682    -1.1357 H       
  30 H30            1.9836    -3.7643    -0.3266 H       
  31 H31            3.9824    -2.5847    -1.1938 H       
  32 H32            3.7837    -0.4405    -2.2492 H       
  33 H33            0.3536    -4.6089     0.0179 H       
  34 H34           -2.3649    -2.8949     1.4745 H       
  35 H35           -1.1250    -6.7104    -0.0203 H       
  36 H36           -3.1446    -7.6964     1.0397 H       
@<TRIPOS>BOND
   1    1    2 am
   2    1    6 1
   3    1   24 2
   4    1   25 2
   5    2    3 2
   6    3    4 1
   7    3    7 1
   8    4    5 1
   9    4   10 1
  10    5    6 1
  11    5   26 1
  12    5   27 1
  13    6   28 1
  14    6   29 1
  15    7    8 2
  16    7   11 1
  17    8    9 1
  18    8   30 1
  19    9   10 2
  20    9   31 1
  21   10   32 1
  22   11   12 2
  23   11   13 am
  24   13   15 1
  25   13   33 1
  26   14   15 ar
  27   14   19 ar
  28   14   34 1
  29   15   16 ar
  30   16   17 ar
  31   16   35 1
  32   17   18 ar
  33   17   36 1
  34   18   19 ar
  35   18   20 1
  36   20   21 1
  37   20   22 1
  38   20   23 1

#	End of record

