#	Name: ASD01913374
#	Creating user name:	WinNT
#	Creation time:	15. 06. 2019 20:01

#	Modifying user name:	WinNT
#	Modification time:	15. 06. 2019 20:01

#	Program:	/corina/corina34_cracker 3.40 0067  02.08.2006

@<TRIPOS>MOLECULE
ASD01913374
  36   38    0    0    0
SMALL
NO_CHARGES


@<TRIPOS>ATOM
   1 C1            -0.0167     1.3789     0.0096 C.2     
   2 C2             0.0021    -0.0041     0.0020 C.2     
   3 C3             1.2506    -0.6673    -0.0135 C.2     
   4 N4             2.3633     0.0254    -0.0199 N.2     
   5 C5             2.3483     1.3645    -0.0126 C.2     
   6 N6             1.1652     2.0483     0.0019 N.pl3   
   7 N7             3.3231     2.2675    -0.0160 N.2     
   8 C8             2.8044     3.4879    -0.0041 C.2     
   9 N9             1.4951     3.4102     0.0070 N.2     
  10 C10           -1.2202    -0.7502     0.0101 C.1     
  11 C11           -2.2222    -1.3619     0.0168 C.1     
  12 C12           -3.4444    -2.1080     0.0249 C.ar    
  13 C13           -3.4242    -3.5088     0.0172 C.ar    
  14 C14           -4.6341    -4.1822     0.0256 C.ar    
  15 N15           -5.8014    -2.1374     0.0540 N.ar    
  16 C16           -4.6778    -1.4514     0.0465 C.ar    
  17 C17           -5.8131    -3.4567     0.0411 C.ar    
  18 C18            3.5983     4.7689    -0.0041 C.3     
  19 C19            5.0930     4.4425    -0.0204 C.3     
  20 C20            3.2419     5.5898    -1.2451 C.3     
  21 C21            3.2659     5.5748     1.2532 C.3     
  22 Cl22          -4.6721    -5.9177     0.0161 Cl      
  23 H23           -0.9534     1.9164     0.0170 H       
  24 H24            1.2876    -1.7467    -0.0196 H       
  25 H25           -2.4893    -4.0494     0.0047 H       
  26 H26           -4.7095    -0.3719     0.0575 H       
  27 H27           -6.7582    -3.9794     0.0473 H       
  28 H28            5.3298     3.8684    -0.9161 H       
  29 H29            5.6672     5.3690    -0.0204 H       
  30 H30            5.3468     3.8577     0.8637 H       
  31 H31            2.1771     5.8223    -1.2335 H       
  32 H32            3.8161     6.5163    -1.2451 H       
  33 H33            3.4787     5.0156    -2.1408 H       
  34 H34            3.5198     4.9900     2.1373 H       
  35 H35            3.8401     6.5013     1.2533 H       
  36 H36            2.2010     5.8073     1.2648 H       
@<TRIPOS>BOND
   1    1    2 2
   2    1    6 1
   3    1   23 1
   4    2    3 1
   5    2   10 1
   6    3    4 2
   7    3   24 1
   8    4    5 1
   9    5    6 1
  10    5    7 2
  11    6    9 1
  12    7    8 1
  13    8    9 2
  14    8   18 1
  15   10   11 3
  16   11   12 1
  17   12   13 ar
  18   12   16 ar
  19   13   14 ar
  20   13   25 1
  21   14   17 ar
  22   14   22 1
  23   15   16 ar
  24   15   17 ar
  25   16   26 1
  26   17   27 1
  27   18   19 1
  28   18   20 1
  29   18   21 1
  30   19   28 1
  31   19   29 1
  32   19   30 1
  33   20   31 1
  34   20   32 1
  35   20   33 1
  36   21   34 1
  37   21   35 1
  38   21   36 1

#	End of record

