#	Name: ASD04880428
#	Creating user name:	WinNT
#	Creation time:	15. 06. 2019 20:53

#	Modifying user name:	WinNT
#	Modification time:	15. 06. 2019 20:53

#	Program:	/corina/corina34_cracker 3.40 0067  02.08.2006

@<TRIPOS>MOLECULE
ASD04880428
  48   50    0    0    0
SMALL
NO_CHARGES


@<TRIPOS>ATOM
   1 C1            -0.0024    -0.0041     0.0619 C.1     
   2 C2            -0.0207     1.4277     0.0547 C.ar    
   3 C3             1.1786     2.1413    -0.0077 C.ar    
   4 C4             1.1608     3.5182    -0.0151 C.ar    
   5 C5            -0.0561     4.2013     0.0402 C.ar    
   6 C6            -1.2552     3.4880     0.1031 C.ar    
   7 C7            -1.2381     2.1110     0.1042 C.ar    
   8 N8             0.0121    -1.1400     0.0676 N.1     
   9 C9            -0.0750     5.6795     0.0328 C.2     
  10 O10            0.9675     6.3012     0.1051 O.2     
  11 N11           -1.2477     6.3381    -0.0543 N.am    
  12 N12           -2.4948     5.7495    -0.2538 N.2     
  13 C13           -3.4714     6.5891    -0.3021 C.2     
  14 C14           -2.9398     7.9930    -0.1213 C.3     
  15 C15           -1.4209     7.7955     0.0523 C.3     
  16 C16           -0.9640     8.2930     1.4251 C.3     
  17 C17           -0.6566     8.5115    -1.0632 C.3     
  18 C18           -4.8881     6.2353    -0.5032 C.ar    
  19 C19           -5.2608     4.8972    -0.6593 C.ar    
  20 C20           -6.5904     4.5712    -0.8475 C.ar    
  21 C21           -7.5562     5.5753    -0.8818 C.ar    
  22 C22           -7.1868     6.9032    -0.7269 C.ar    
  23 C23           -5.8624     7.2360    -0.5325 C.ar    
  24 O24           -8.8634     5.2525    -1.0679 O.3     
  25 C25           -9.8008     6.3309    -1.0926 C.3     
  26 O26           -6.9565     3.2703    -0.9997 O.3     
  27 C27           -5.9144     2.2935    -0.9543 C.3     
  28 H28            2.1197     1.6132    -0.0498 H       
  29 H29            2.0880     4.0700    -0.0634 H       
  30 H30           -2.1962     4.0163     0.1462 H       
  31 H31           -2.1655     1.5594     0.1480 H       
  32 H32           -3.1522     8.5986    -1.0024 H       
  33 H33           -3.3665     8.4514     0.7708 H       
  34 H34            0.0957     8.0743     1.5566 H       
  35 H35           -1.1241     9.3690     1.4934 H       
  36 H36           -1.5381     7.7902     2.2033 H       
  37 H37           -1.0150     8.1619    -2.0314 H       
  38 H38           -0.8183     9.5864    -0.9823 H       
  39 H39            0.4078     8.2961    -0.9704 H       
  40 H40           -4.5114     4.1200    -0.6332 H       
  41 H41           -7.9386     7.6781    -0.7542 H       
  42 H42           -5.5782     8.2703    -0.4073 H       
  43 H43          -10.8048     5.9360    -1.2478 H       
  44 H44           -9.7635     6.8664    -0.1440 H       
  45 H45           -9.5489     7.0127    -1.9049 H       
  46 H46           -5.4101     2.3449     0.0106 H       
  47 H47           -6.3418     1.2998    -1.0885 H       
  48 H48           -5.1966     2.4908    -1.7504 H       
@<TRIPOS>BOND
   1    1    2 1
   2    1    8 3
   3    2    3 ar
   4    2    7 ar
   5    3    4 ar
   6    3   28 1
   7    4    5 ar
   8    4   29 1
   9    5    6 ar
  10    5    9 1
  11    6    7 ar
  12    6   30 1
  13    7   31 1
  14    9   10 2
  15    9   11 am
  16   11   12 1
  17   11   15 1
  18   12   13 2
  19   13   14 1
  20   13   18 1
  21   14   15 1
  22   14   32 1
  23   14   33 1
  24   15   16 1
  25   15   17 1
  26   16   34 1
  27   16   35 1
  28   16   36 1
  29   17   37 1
  30   17   38 1
  31   17   39 1
  32   18   19 ar
  33   18   23 ar
  34   19   20 ar
  35   19   40 1
  36   20   21 ar
  37   20   26 1
  38   21   22 ar
  39   21   24 1
  40   22   23 ar
  41   22   41 1
  42   23   42 1
  43   24   25 1
  44   25   43 1
  45   25   44 1
  46   25   45 1
  47   26   27 1
  48   27   46 1
  49   27   47 1
  50   27   48 1

#	End of record

