#	Name: ASD01140529
#	Creating user name:	WinNT
#	Creation time:	15. 06. 2019 19:01

#	Modifying user name:	WinNT
#	Modification time:	15. 06. 2019 19:01

#	Program:	/corina/corina34_cracker 3.40 0067  02.08.2006

@<TRIPOS>MOLECULE
ASD01140529
  60   63    0    0    0
SMALL
NO_CHARGES


@<TRIPOS>ATOM
   1 C1            -0.3681     1.6949     0.2560 C.3     
   2 C2            -0.4547     0.1699     0.3398 C.3     
   3 C3             0.2569    -0.4482    -0.8654 C.3     
   4 C4             1.7260    -0.0205    -0.8638 C.3     
   5 C5             1.8125     1.5043    -0.9485 C.3     
   6 C6             1.1006     2.1249     0.2556 C.3     
   7 C7             1.1838     3.6491     0.1639 C.3     
   8 C8             3.2806     1.9342    -0.9514 C.3     
   9 C9             3.3664     3.4593    -1.0386 C.3     
  10 C10            2.6591     4.0787     0.1677 C.3     
  11 C11            0.5492     5.8171     1.3028 C.3     
  12 C12            0.4134     4.2849     1.3161 C.3     
  13 C13            2.0292     6.1394     1.3708 C.3     
  14 C14            2.4056     7.6176     1.3571 C.3     
  15 C15            2.6850     5.5929     0.0737 C.3     
  16 C16            4.0712     6.2439     0.1286 C.3     
  17 C17            3.7571     7.6891     0.6035 C.3     
  18 C18            1.7720     1.6508     1.5461 C.3     
  19 C19            2.6513     5.4584     2.5916 C.3     
  20 C20            2.5655     8.1287     2.7657 C.2     
  21 C21            1.3664     8.6385     3.5230 C.3     
  22 O22            3.6545     8.1299     3.2877 O.2     
  23 C23           -0.4127     0.0317    -2.1546 C.3     
  24 O24            0.1754    -1.8728    -0.7878 O.3     
  25 H25            3.1381     3.7434     1.0876 H       
  26 H26            1.3347     1.8443    -1.8673 H       
  27 H27            0.7257     3.9709    -0.7713 H       
  28 H28            2.1310     5.9275    -0.8033 H       
  29 H29           -0.8466     2.0359    -0.6621 H       
  30 H30           -0.8751     2.1351     1.1147 H       
  31 H31            0.0231    -0.1713     1.2581 H       
  32 H32           -1.5011    -0.1352     0.3396 H       
  33 H33            2.2026    -0.3611     0.0554 H       
  34 H34            2.2338    -0.4615    -1.7216 H       
  35 H35            3.7601     1.5953    -0.0330 H       
  36 H36            3.7867     1.4922    -1.8096 H       
  37 H37            4.4127     3.7648    -1.0428 H       
  38 H38            2.8849     3.7985    -1.9558 H       
  39 H39            0.1241     6.2191     0.3831 H       
  40 H40            0.0371     6.2423     2.1659 H       
  41 H41           -0.6403     4.0195     1.2302 H       
  42 H42            0.8012     3.9006     2.2595 H       
  43 H43            1.6474     8.1954     0.8286 H       
  44 H44            4.7098     5.7316     0.8483 H       
  45 H45            4.5320     6.2540    -0.8591 H       
  46 H46            3.6717     8.3548    -0.2553 H       
  47 H47            4.5411     8.0412     1.2739 H       
  48 H48            1.7119     0.5643     1.6090 H       
  49 H49            2.8181     1.9573     1.5452 H       
  50 H50            1.2646     2.0931     2.4033 H       
  51 H51            2.4732     4.3843     2.5385 H       
  52 H52            3.7245     5.6485     2.6061 H       
  53 H53            2.1993     5.8572     3.4997 H       
  54 H54            0.4793     8.5595     2.8946 H       
  55 H55            1.2266     8.0432     4.4254 H       
  56 H56            1.5261     9.6814     3.7969 H       
  57 H57           -0.3502     1.1183    -2.2138 H       
  58 H58            0.0943    -0.4087    -3.0131 H       
  59 H59           -1.4594    -0.2725    -2.1554 H       
  60 H60           -0.7289    -2.2154    -0.7839 H       
@<TRIPOS>BOND
   1    1    2 1
   2    1    6 1
   3    1   29 1
   4    1   30 1
   5    2    3 1
   6    2   31 1
   7    2   32 1
   8    3    4 1
   9    3   23 1
  10    3   24 1
  11    4    5 1
  12    4   33 1
  13    4   34 1
  14    5    6 1
  15    5    8 1
  16    5   26 1
  17    6    7 1
  18    6   18 1
  19    7   10 1
  20    7   27 1
  21    7   12 1
  22    8    9 1
  23    8   35 1
  24    8   36 1
  25    9   10 1
  26    9   37 1
  27    9   38 1
  28   10   15 1
  29   10   25 1
  30   11   12 1
  31   11   13 1
  32   11   39 1
  33   11   40 1
  34   12   41 1
  35   12   42 1
  36   13   15 1
  37   13   19 1
  38   13   14 1
  39   14   17 1
  40   14   20 1
  41   14   43 1
  42   15   16 1
  43   15   28 1
  44   16   17 1
  45   16   44 1
  46   16   45 1
  47   17   46 1
  48   17   47 1
  49   18   48 1
  50   18   49 1
  51   18   50 1
  52   19   51 1
  53   19   52 1
  54   19   53 1
  55   20   21 1
  56   20   22 2
  57   21   54 1
  58   21   55 1
  59   21   56 1
  60   23   57 1
  61   23   58 1
  62   23   59 1
  63   24   60 1

#	End of record

