#	Name: ASD06610052
#	Creating user name:	WinNT
#	Creation time:	15. 06. 2019 21:07

#	Modifying user name:	WinNT
#	Modification time:	15. 06. 2019 21:07

#	Program:	/corina/corina34_cracker 3.40 0067  02.08.2006

@<TRIPOS>MOLECULE
ASD06610052
 209  208    0    0    0
SMALL
NO_CHARGES


@<TRIPOS>ATOM
   1 C1            -2.5096     0.6009    -2.6280 C.2     
   2 O2            -2.4807    -0.6052    -2.5044 O.2     
   3 N3            -0.0808     0.5280    -2.6450 N.3     
   4 C4            -1.2506     1.3533    -2.9740 C.3     
   5 C5            -1.2434     1.6748    -4.4699 C.3     
   6 C6            -0.0287     2.5450    -4.7987 C.3     
   7 C7            -0.0215     2.8664    -6.2945 C.3     
   8 N8             1.1416     3.6996    -6.6094 N.pl3   
   9 C9             1.3590     4.1164    -7.9009 C.2     
  10 N10            0.6075     3.6680    -8.8648 N.2     
  11 N11            2.3751     5.0111    -8.1763 N.am    
  12 C12           -6.0917     1.3291    -2.5861 C.2     
  13 O13           -5.9370     2.4005    -3.1329 O.2     
  14 N14           -3.6689     1.2678    -2.4612 N.am    
  15 C15           -4.8941     0.5357    -2.1307 C.3     
  16 C16           -4.9687     0.3230    -0.6174 C.3     
  17 C17           -3.8214    -0.5864    -0.1731 C.3     
  18 C18           -3.8948    -0.7959     1.3175 C.2     
  19 O19           -4.7745    -0.2715     1.9586 O.2     
  20 O20           -2.9829    -1.5650     1.9329 O.3     
  21 C21           -9.6990     1.2366    -2.0013 C.2     
  22 O22           -9.5923     0.4019    -1.1279 O.2     
  23 N23           -7.3346     0.8480    -2.3858 N.am    
  24 C24           -8.4988     1.6192    -2.8285 C.3     
  25 C25           -8.7788     1.3194    -4.3024 C.3     
  26 C26           -7.6123     1.8217    -5.1556 C.3     
  27 C27           -7.8922     1.5218    -6.6296 C.3     
  28 C28           -6.7257     2.0241    -7.4827 C.3     
  29 N29           -6.9945     1.7361    -8.8979 N.3     
  30 C30          -13.3156     1.7261    -2.2102 C.2     
  31 O31          -13.2446     2.1881    -3.3294 O.2     
  32 N32          -10.8908     1.8221    -2.2320 N.am    
  33 C33          -12.0575     1.4501    -1.4278 C.3     
  34 C34          -12.0696     2.2708    -0.1366 C.3     
  35 C35          -10.8549     1.8982     0.7159 C.3     
  36 C36          -10.8670     2.7189     2.0071 C.3     
  37 N37           -9.7039     2.3621     2.8234 N.pl3   
  38 C38           -9.5024     2.9746     4.0376 C.2     
  39 N39           -8.4676     2.6572     4.7639 N.2     
  40 N40          -10.3922     3.9219     4.4858 N.pl3   
  41 C41          -16.8894     1.9450    -1.4737 C.2     
  42 O42          -16.7036     1.8818    -0.2769 O.2     
  43 N43          -14.5195     1.4597    -1.6663 N.am    
  44 C44          -15.7425     1.7280    -2.4269 C.3     
  45 C45          -16.0515     0.5348    -3.3333 C.3     
  46 C46          -14.9463     0.3909    -4.3815 C.3     
  47 C47          -15.2553    -0.8023    -5.2879 C.3     
  48 N48          -14.1971    -0.9401    -6.2916 N.pl3   
  49 C49          -14.2596    -1.9500    -7.2223 C.2     
  50 N50          -15.2605    -2.7850    -7.2117 N.2     
  51 N51          -13.2665    -2.0793    -8.1642 N.pl3   
  52 C52          -20.5341     2.0894    -1.7162 C.2     
  53 O53          -20.5280     1.7142    -2.8695 O.2     
  54 N54          -18.1217     2.2094    -1.9512 N.am    
  55 C55          -19.2367     2.4204    -1.0246 C.3     
  56 C56          -19.2568     3.8828    -0.5755 C.3     
  57 O57          -19.5343     4.7222    -1.6982 O.3     
  58 C58          -24.0888     2.6441    -1.0684 C.2     
  59 O59          -23.8605     3.3790    -0.1311 O.2     
  60 N60          -21.7012     2.2103    -1.0530 N.am    
  61 C61          -22.9624     1.8885    -1.7253 C.3     
  62 C62          -23.2273     0.3853    -1.6203 C.3     
  63 C63          -27.0309     2.6052     0.2245 C.2     
  64 O64          -26.6031     1.5216     0.5616 O.2     
  65 N65          -25.3498     2.5032    -1.5227 N.am    
  66 C66          -26.4274     3.3191    -0.9576 C.3     
  67 C67          -27.5047     3.5477    -2.0197 C.3     
  68 C68          -26.9147     4.3112    -3.1774 C.2     
  69 O69          -25.7331     4.5626    -3.1958 O.2     
  70 O70          -27.7020     4.7119    -4.1880 O.3     
  71 C71          -29.6851     1.5108     1.5758 C.2     
  72 O72          -29.9207     1.4121     0.3948 O.2     
  73 N73          -28.0462     3.1709     0.9069 N.am    
  74 C74          -28.6329     2.4769     2.0560 C.3     
  75 C75          -29.2714     3.4997     2.9979 C.3     
  76 C76          -29.7738     2.7898     4.2566 C.3     
  77 C77          -30.2991     3.8266     5.2516 C.3     
  78 C78          -30.4467     4.1790     2.2920 C.3     
  79 O79          -30.3605     0.7600     2.4600 O.3     
  80 C80            3.0726     5.5700    -7.1675 C.2     
  81 O81            2.8652     5.2259    -6.0235 O.2     
  82 C82           15.9633    17.3594    -0.3831 C.3     
  83 C83           14.9098    16.2908    -0.0847 C.3     
  84 C84           14.2700    15.8256    -1.3943 C.3     
  85 C85           13.2165    14.7570    -1.0959 C.3     
  86 C86           12.5767    14.2917    -2.4055 C.3     
  87 C87           11.5232    13.2231    -2.1071 C.3     
  88 C88           10.8834    12.7579    -3.4167 C.3     
  89 C89            9.8299    11.6893    -3.1183 C.3     
  90 C90            9.1902    11.2241    -4.4279 C.3     
  91 C91            8.1366    10.1555    -4.1295 C.3     
  92 C92            7.4969     9.6902    -5.4391 C.3     
  93 C93            6.4434     8.6216    -5.1407 C.3     
  94 C94            5.8036     8.1564    -6.4503 C.3     
  95 C95            4.7501     7.0878    -6.1519 C.3     
  96 C96            4.1103     6.6226    -7.4615 C.3     
  97 H97           -0.0275     0.3558    -1.6522 H       
  98 H98           -0.0925    -0.3383    -3.1621 H       
  99 H99           -1.2131     2.2809    -2.4029 H       
 100 H100          -1.1913     0.7476    -5.0405 H       
 101 H101          -2.1558     2.2111    -4.7306 H       
 102 H102          -0.0808     3.4722    -4.2280 H       
 103 H103           0.8837     2.0086    -4.5379 H       
 104 H104           0.0306     1.9392    -6.8652 H       
 105 H105          -0.9339     3.4027    -6.5553 H       
 106 H106           1.7583     3.9572    -5.9063 H       
 107 H107           0.7129     4.0162    -9.7640 H       
 108 H108           2.5864     5.2371    -9.0956 H       
 109 H109          -3.6921     2.2325    -2.5601 H       
 110 H110          -4.8864    -0.4314    -2.6336 H       
 111 H111          -4.8870     1.2848    -0.1109 H       
 112 H112          -5.9208    -0.1422    -0.3624 H       
 113 H113          -3.9030    -1.5481    -0.6796 H       
 114 H114          -2.8692    -0.1212    -0.4281 H       
 115 H115          -3.0711    -1.6698     2.8901 H       
 116 H116          -7.4583    -0.0090    -1.9485 H       
 117 H117          -8.2975     2.6835    -2.7061 H       
 118 H118          -8.8923     0.2439    -4.4392 H       
 119 H119          -9.6957     1.8233    -4.6079 H       
 120 H120          -7.4987     2.8971    -5.0188 H       
 121 H121          -6.6953     1.3177    -4.8501 H       
 122 H122          -8.0057     0.4464    -6.7663 H       
 123 H123          -8.8092     2.0257    -6.9351 H       
 124 H124          -6.6122     3.0995    -7.3459 H       
 125 H125          -5.8087     1.5201    -7.1772 H       
 126 H126          -7.8728     2.1389    -9.1884 H       
 127 H127          -6.2380     2.0586    -9.4825 H       
 128 H128         -10.9761     2.4897    -2.9305 H       
 129 H129         -12.0070     0.3891    -1.1834 H       
 130 H130         -12.0304     3.3325    -0.3805 H       
 131 H131         -12.9826     2.0593     0.4199 H       
 132 H132         -10.8941     0.8366     0.9598 H       
 133 H133          -9.9418     2.1097     0.1595 H       
 134 H134         -10.8278     3.7805     1.7632 H       
 135 H135         -11.7801     2.5074     2.5636 H       
 136 H136          -9.0761     1.6937     2.5072 H       
 137 H137          -8.3254     3.0893     5.6205 H       
 138 H138         -11.1623     4.1582     3.9453 H       
 139 H139         -10.2500     4.3541     5.3425 H       
 140 H140         -14.5763     1.0902    -0.7712 H       
 141 H141         -15.6028     2.6207    -3.0364 H       
 142 H142         -16.1035    -0.3736    -2.7331 H       
 143 H143         -17.0071     0.6955    -3.8325 H       
 144 H144         -14.8944     1.2993    -4.9817 H       
 145 H145         -13.9908     0.2301    -3.8823 H       
 146 H146         -15.3073    -1.7107    -4.6877 H       
 147 H147         -16.2108    -0.6416    -5.7872 H       
 148 H148         -13.4523    -0.3187    -6.2995 H       
 149 H149         -15.3046    -3.4975    -7.8684 H       
 150 H150         -12.5217    -1.4580    -8.1721 H       
 151 H151         -13.3107    -2.7919    -8.8209 H       
 152 H152         -18.2704     2.2600    -2.9084 H       
 153 H153         -19.1135     1.7749    -0.1550 H       
 154 H154         -20.0298     4.0201     0.1806 H       
 155 H155         -18.2864     4.1472    -0.1553 H       
 156 H156         -19.5624     5.6654    -1.4868 H       
 157 H157         -21.7060     2.5104    -0.1306 H       
 158 H158         -22.8974     2.1736    -2.7754 H       
 159 H159         -24.1657     0.1459    -2.1205 H       
 160 H160         -22.4126    -0.1612    -2.0954 H       
 161 H161         -23.2922     0.1003    -0.5702 H       
 162 H162         -25.5439     1.8616    -2.2238 H       
 163 H163         -26.0252     4.2795    -0.6354 H       
 164 H164         -27.8781     2.5859    -2.3714 H       
 165 H165         -28.3254     4.1201    -1.5875 H       
 166 H166         -27.2783     5.1985    -4.9082 H       
 167 H167         -28.3884     4.0375     0.6372 H       
 168 H168         -27.8535     1.9307     2.5873 H       
 169 H169         -28.5311     4.2502     3.2750 H       
 170 H170         -30.5768     2.1025     3.9902 H       
 171 H171         -28.9545     2.2327     4.7110 H       
 172 H172         -30.6570     3.3209     6.1484 H       
 173 H173         -29.4961     4.5139     5.5181 H       
 174 H174         -31.1184     4.3837     4.7972 H       
 175 H175         -30.9016     4.9076     2.9630 H       
 176 H176         -30.0888     4.6847     1.3952 H       
 177 H177         -31.1870     3.4285     2.0149 H       
 178 H178         -31.0257     0.1549     2.1045 H       
 179 H179          15.4904    18.2077    -0.8779 H       
 180 H180          16.4191    17.6908     0.5499 H       
 181 H181          16.7310    16.9410    -1.0340 H       
 182 H182          15.3828    15.4425     0.4101 H       
 183 H183          14.1421    16.7092     0.5662 H       
 184 H184          13.7971    16.6739    -1.8891 H       
 185 H185          15.0377    15.4071    -2.0452 H       
 186 H186          13.6895    13.9087    -0.6011 H       
 187 H187          12.4488    15.1754    -0.4450 H       
 188 H188          12.1038    15.1400    -2.9003 H       
 189 H189          13.3444    13.8733    -3.0564 H       
 190 H190          11.9962    12.3748    -1.6123 H       
 191 H191          10.7555    13.6416    -1.4562 H       
 192 H192          10.4105    13.6062    -3.9115 H       
 193 H193          11.6512    12.3395    -4.0676 H       
 194 H194          10.3029    10.8410    -2.6235 H       
 195 H195           9.0622    12.1077    -2.4674 H       
 196 H196           8.7172    12.0724    -4.9227 H       
 197 H197           9.9579    10.8056    -5.0788 H       
 198 H198           8.6096     9.3071    -3.6347 H       
 199 H199           7.3689    10.5739    -3.4786 H       
 200 H200           7.0239    10.5385    -5.9339 H       
 201 H201           8.2646     9.2718    -6.0900 H       
 202 H202           6.9163     7.7733    -4.6459 H       
 203 H203           5.6756     9.0401    -4.4898 H       
 204 H204           5.3306     9.0047    -6.9451 H       
 205 H205           6.5713     7.7380    -7.1012 H       
 206 H206           5.2230     6.2395    -5.6571 H       
 207 H207           3.9823     7.5062    -5.5010 H       
 208 H208           4.8780     6.2041    -8.1124 H       
 209 H209           3.6373     7.4709    -7.9563 H       
@<TRIPOS>BOND
   1    1    2 2
   2    1    4 1
   3    1   14 am
   4    3    4 1
   5    3   97 1
   6    3   98 1
   7    4    5 1
   8    4   99 1
   9    5    6 1
  10    5  100 1
  11    5  101 1
  12    6    7 1
  13    6  102 1
  14    6  103 1
  15    7    8 1
  16    7  104 1
  17    7  105 1
  18    8    9 1
  19    8  106 1
  20    9   10 2
  21    9   11 1
  22   10  107 1
  23   11   80 am
  24   11  108 1
  25   12   13 2
  26   12   15 1
  27   12   23 am
  28   14   15 1
  29   14  109 1
  30   15   16 1
  31   15  110 1
  32   16   17 1
  33   16  111 1
  34   16  112 1
  35   17   18 1
  36   17  113 1
  37   17  114 1
  38   18   19 2
  39   18   20 1
  40   20  115 1
  41   21   22 2
  42   21   24 1
  43   21   32 am
  44   23   24 1
  45   23  116 1
  46   24   25 1
  47   24  117 1
  48   25   26 1
  49   25  118 1
  50   25  119 1
  51   26   27 1
  52   26  120 1
  53   26  121 1
  54   27   28 1
  55   27  122 1
  56   27  123 1
  57   28   29 1
  58   28  124 1
  59   28  125 1
  60   29  126 1
  61   29  127 1
  62   30   31 2
  63   30   33 1
  64   30   43 am
  65   32   33 1
  66   32  128 1
  67   33   34 1
  68   33  129 1
  69   34   35 1
  70   34  130 1
  71   34  131 1
  72   35   36 1
  73   35  132 1
  74   35  133 1
  75   36   37 1
  76   36  134 1
  77   36  135 1
  78   37   38 1
  79   37  136 1
  80   38   39 2
  81   38   40 1
  82   39  137 1
  83   40  138 1
  84   40  139 1
  85   41   42 2
  86   41   44 1
  87   41   54 am
  88   43   44 1
  89   43  140 1
  90   44   45 1
  91   44  141 1
  92   45   46 1
  93   45  142 1
  94   45  143 1
  95   46   47 1
  96   46  144 1
  97   46  145 1
  98   47   48 1
  99   47  146 1
 100   47  147 1
 101   48   49 1
 102   48  148 1
 103   49   50 2
 104   49   51 1
 105   50  149 1
 106   51  150 1
 107   51  151 1
 108   52   53 2
 109   52   55 1
 110   52   60 am
 111   54   55 1
 112   54  152 1
 113   55   56 1
 114   55  153 1
 115   56   57 1
 116   56  154 1
 117   56  155 1
 118   57  156 1
 119   58   59 2
 120   58   61 1
 121   58   65 am
 122   60   61 1
 123   60  157 1
 124   61   62 1
 125   61  158 1
 126   62  159 1
 127   62  160 1
 128   62  161 1
 129   63   64 2
 130   63   66 1
 131   63   73 am
 132   65   66 1
 133   65  162 1
 134   66   67 1
 135   66  163 1
 136   67   68 1
 137   67  164 1
 138   67  165 1
 139   68   69 2
 140   68   70 1
 141   70  166 1
 142   71   72 2
 143   71   74 1
 144   71   79 1
 145   73   74 1
 146   73  167 1
 147   74   75 1
 148   74  168 1
 149   75   76 1
 150   75   78 1
 151   75  169 1
 152   76   77 1
 153   76  170 1
 154   76  171 1
 155   77  172 1
 156   77  173 1
 157   77  174 1
 158   78  175 1
 159   78  176 1
 160   78  177 1
 161   79  178 1
 162   80   81 2
 163   80   96 1
 164   82   83 1
 165   82  179 1
 166   82  180 1
 167   82  181 1
 168   83   84 1
 169   83  182 1
 170   83  183 1
 171   84   85 1
 172   84  184 1
 173   84  185 1
 174   85   86 1
 175   85  186 1
 176   85  187 1
 177   86   87 1
 178   86  188 1
 179   86  189 1
 180   87   88 1
 181   87  190 1
 182   87  191 1
 183   88   89 1
 184   88  192 1
 185   88  193 1
 186   89   90 1
 187   89  194 1
 188   89  195 1
 189   90   91 1
 190   90  196 1
 191   90  197 1
 192   91   92 1
 193   91  198 1
 194   91  199 1
 195   92   93 1
 196   92  200 1
 197   92  201 1
 198   93   94 1
 199   93  202 1
 200   93  203 1
 201   94   95 1
 202   94  204 1
 203   94  205 1
 204   95   96 1
 205   95  206 1
 206   95  207 1
 207   96  208 1
 208   96  209 1

#	End of record

