#	Name: ASD03080235
#	Creating user name:	WinNT
#	Creation time:	15. 06. 2019 20:26

#	Modifying user name:	WinNT
#	Modification time:	15. 06. 2019 20:26

#	Program:	/corina/corina34_cracker 3.40 0067  02.08.2006

@<TRIPOS>MOLECULE
ASD03080235
  50   50    0    0    0
SMALL
NO_CHARGES


@<TRIPOS>ATOM
   1 O1            -0.0162     1.3412     0.0094 O.3     
   2 C2             0.0021    -0.0041     0.0020 C.2     
   3 O3             1.0602    -0.5960    -0.0113 O.2     
   4 C4            -1.2816    -0.7687     0.0102 C.2     
   5 O5            -1.2634    -2.1140     0.0028 O.3     
   6 O6            -2.3398    -0.1768     0.0234 O.2     
   7 H7             0.8394     1.7919     0.0037 H       
   8 H8            -2.1189    -2.5647     0.0085 H       
   9 C9             7.1546    16.3365     9.4479 C.3     
  10 C10            7.1705    14.8220     9.6647 C.3     
  11 C11            7.8477    14.1432     8.4724 C.3     
  12 C12            7.0730    14.4673     7.1934 C.3     
  13 C13            9.2838    14.6549     8.3423 C.3     
  14 C14            7.8634    12.6515     8.6859 C.2     
  15 N15            7.2450    11.9991     9.7179 N.pl3   
  16 H16            6.7316    12.4279    10.4203 H       
  17 C17            7.4601    10.6433     9.6103 C.ar    
  18 C18            7.0680     9.5483    10.3729 C.ar    
  19 C19            7.4530     8.2790     9.9967 C.ar    
  20 Br20           6.9179     6.7919    11.0350 Br      
  21 C21            8.2296     8.0819     8.8624 C.ar    
  22 C22            8.6259     9.1441     8.0996 C.ar    
  23 C23            8.2469    10.4377     8.4621 C.ar    
  24 C24            8.4811    11.7655     7.8890 C.2     
  25 C25            9.2684    12.0777     6.6425 C.3     
  26 C26           10.7561    12.1682     6.9882 C.3     
  27 N27           11.5090    12.5989     5.8026 N.3     
  28 C28           12.9447    12.6972     6.0978 C.3     
  29 H29            8.1777    16.7010     9.3552 H       
  30 H30            6.6027    16.5673     8.5367 H       
  31 H31            6.6722    16.8201    10.2973 H       
  32 H32            7.7224    14.5912    10.5758 H       
  33 H33            6.1475    14.4575     9.7574 H       
  34 H34            7.0319    15.5480     7.0575 H       
  35 H35            7.5751    14.0125     6.3395 H       
  36 H36            6.0602    14.0721     7.2722 H       
  37 H37            9.8684    14.3183     9.1985 H       
  38 H38            9.7262    14.2665     7.4250 H       
  39 H39            9.2798    15.7445     8.3107 H       
  40 H40            6.4643     9.6918    11.2568 H       
  41 H41            8.5229     7.0812     8.5812 H       
  42 H42            9.2304     8.9833     7.2192 H       
  43 H43            9.1136    11.2877     5.9076 H       
  44 H44            8.9328    13.0289     6.2295 H       
  45 H45           10.8991    12.8908     7.7917 H       
  46 H46           11.1143    11.1906     7.3107 H       
  47 H47           11.3415    11.9801     5.0234 H       
  48 H48           13.4784    13.0178     5.2031 H       
  49 H49           13.1028    13.4234     6.8950 H       
  50 H50           13.3181    11.7233     6.4141 H       
@<TRIPOS>BOND
   1    1    2 1
   2    1    7 1
   3    2    3 2
   4    2    4 1
   5    4    5 1
   6    4    6 2
   7    5    8 1
   8    9   10 1
   9    9   29 1
  10    9   30 1
  11    9   31 1
  12   10   11 1
  13   10   32 1
  14   10   33 1
  15   11   12 1
  16   11   13 1
  17   11   14 1
  18   12   34 1
  19   12   35 1
  20   12   36 1
  21   13   37 1
  22   13   38 1
  23   13   39 1
  24   14   24 2
  25   14   15 1
  26   15   16 1
  27   15   17 1
  28   17   23 ar
  29   17   18 ar
  30   18   19 ar
  31   18   40 1
  32   19   20 1
  33   19   21 ar
  34   21   22 ar
  35   21   41 1
  36   22   23 ar
  37   22   42 1
  38   23   24 1
  39   24   25 1
  40   25   26 1
  41   25   43 1
  42   25   44 1
  43   26   27 1
  44   26   45 1
  45   26   46 1
  46   27   28 1
  47   27   47 1
  48   28   48 1
  49   28   49 1
  50   28   50 1

#	End of record

