#	Name: ASD08150419
#	Creating user name:	WinNT
#	Creation time:	15. 06. 2019 21:16

#	Modifying user name:	WinNT
#	Modification time:	15. 06. 2019 21:16

#	Program:	/corina/corina34_cracker 3.40 0067  02.08.2006

@<TRIPOS>MOLECULE
ASD08150419
  40   42    0    0    0
SMALL
NO_CHARGES


@<TRIPOS>ATOM
   1 N1             0.2475     1.1630     0.4727 N.2     
   2 C2             0.2139    -0.1272     0.3318 C.2     
   3 N3             1.1559    -0.8290    -0.3547 N.am    
   4 C4             2.1992    -0.1936    -0.9374 C.2     
   5 C5             2.2658     1.2682    -0.7965 C.ar    
   6 C6             3.2988     2.0162    -1.3580 C.ar    
   7 C7             3.3126     3.3841    -1.1948 C.ar    
   8 C8             2.3080     4.0200    -0.4769 C.ar    
   9 C9             1.2789     3.2994     0.0861 C.ar    
  10 C10            1.2424     1.9116    -0.0656 C.ar    
  11 O11            3.0497    -0.8087    -1.5540 O.2     
  12 C12            1.0452    -2.2214    -0.4590 C.ar    
  13 C13            1.7442    -3.0424     0.4160 C.ar    
  14 C14            1.6326    -4.4149     0.3109 C.ar    
  15 C15            0.8258    -4.9718    -0.6643 C.ar    
  16 C16            0.1287    -4.1570    -1.5374 C.ar    
  17 C17            0.2317    -2.7836    -1.4339 C.ar    
  18 C18            4.3931     1.3338    -2.1376 C.3     
  19 C19           -0.9260    -0.8861     0.9609 C.3     
  20 C20           -1.0225    -0.5239     2.4443 C.3     
  21 C21           -2.0566    -1.3526     3.0854 C.1     
  22 C22           -2.8812    -2.0135     3.5966 C.1     
  23 N23           -2.1820    -0.5303     0.2872 N.3     
  24 H24            4.1116     3.9669    -1.6286 H       
  25 H25            2.3347     5.0931    -0.3585 H       
  26 H26            0.5038     3.8049     0.6429 H       
  27 H27            2.3748    -2.6080     1.1776 H       
  28 H28            2.1763    -5.0540     0.9909 H       
  29 H29            0.7401    -6.0455    -0.7445 H       
  30 H30           -0.5001    -4.5949    -2.2985 H       
  31 H31           -0.3165    -2.1476    -2.1132 H       
  32 H32            4.0617     1.1717    -3.1632 H       
  33 H33            5.2842     1.9615    -2.1386 H       
  34 H34            4.6249     0.3745    -1.6748 H       
  35 H35           -0.7497    -1.9569     0.8591 H       
  36 H36           -0.0616    -0.7051     2.9258 H       
  37 H37           -1.2866     0.5288     2.5449 H       
  38 H38           -3.6188    -2.6045     4.0539 H       
  39 H39           -2.3628     0.4598     0.3587 H       
  40 H40           -2.1719    -0.8274    -0.6770 H       
@<TRIPOS>BOND
   1    1    2 2
   2    1   10 1
   3    2    3 1
   4    2   19 1
   5    3    4 am
   6    3   12 1
   7    4    5 1
   8    4   11 2
   9    5    6 ar
  10    5   10 ar
  11    6    7 ar
  12    6   18 1
  13    7    8 ar
  14    7   24 1
  15    8    9 ar
  16    8   25 1
  17    9   10 ar
  18    9   26 1
  19   12   13 ar
  20   12   17 ar
  21   13   14 ar
  22   13   27 1
  23   14   15 ar
  24   14   28 1
  25   15   16 ar
  26   15   29 1
  27   16   17 ar
  28   16   30 1
  29   17   31 1
  30   18   32 1
  31   18   33 1
  32   18   34 1
  33   19   20 1
  34   19   23 1
  35   19   35 1
  36   20   21 1
  37   20   36 1
  38   20   37 1
  39   21   22 3
  40   22   38 1
  41   23   39 1
  42   23   40 1

#	End of record

