#	Name: ASD00069476
#	Creating user name:	WinNT
#	Creation time:	15. 06. 2019 18:29

#	Modifying user name:	WinNT
#	Modification time:	15. 06. 2019 18:29

#	Program:	/corina/corina34_cracker 3.40 0067  02.08.2006

@<TRIPOS>MOLECULE
ASD00069476
  22   22    0    0    0
SMALL
NO_CHARGES


@<TRIPOS>ATOM
   1 O1            -1.1342    -0.5617    -0.5787 O.3     
   2 B2             0.0229    -0.0007     0.0236 Du      
   3 O3            -0.0517     1.2663     0.6604 O.3     
   4 C4             1.3846    -0.7811    -0.0147 C.ar    
   5 C5             2.5861    -0.0857    -0.1375 C.ar    
   6 C6             1.3967    -2.1720     0.0799 C.ar    
   7 C7             2.5962    -2.8526     0.0463 C.ar    
   8 C8             3.7860    -2.1573    -0.0807 C.ar    
   9 C9             3.7801    -0.7767    -0.1701 C.ar    
  10 C10            5.0798    -0.0265    -0.3087 C.3     
  11 C11            0.1020    -2.9304     0.2192 C.3     
  12 H12           -0.9855    -1.4258    -0.9867 H       
  13 H13            0.7637     1.5299     1.1085 H       
  14 H14            2.5827     0.9921    -0.2074 H       
  15 H15            2.6067    -3.9301     0.1195 H       
  16 H16            4.7228    -2.6941    -0.1059 H       
  17 H17            5.3225     0.0878    -1.3652 H       
  18 H18            4.9821     0.9573     0.1502 H       
  19 H19            5.8748    -0.5821     0.1887 H       
  20 H20           -0.3198    -3.1139    -0.7690 H       
  21 H21            0.2900    -3.8820     0.7164 H       
  22 H22           -0.6008    -2.3439     0.8110 H       
@<TRIPOS>BOND
   1    1    2 1
   2    1   12 1
   3    2    3 1
   4    2    4 1
   5    3   13 1
   6    4    5 ar
   7    4    6 ar
   8    5    9 ar
   9    5   14 1
  10    6    7 ar
  11    6   11 1
  12    7    8 ar
  13    7   15 1
  14    8    9 ar
  15    8   16 1
  16    9   10 1
  17   10   17 1
  18   10   18 1
  19   10   19 1
  20   11   20 1
  21   11   21 1
  22   11   22 1

#	End of record

