#	Name: ASD01918109
#	Creating user name:	WinNT
#	Creation time:	15. 06. 2019 20:10

#	Modifying user name:	WinNT
#	Modification time:	15. 06. 2019 20:10

#	Program:	/corina/corina34_cracker 3.40 0067  02.08.2006

@<TRIPOS>MOLECULE
ASD01918109
  40   42    0    0    0
SMALL
NO_CHARGES


@<TRIPOS>ATOM
   1 N1             0.0540     1.2112    -0.2348 N.am    
   2 C2             0.2817    -0.1697    -0.2479 C.2     
   3 C3             2.7580     0.0966    -0.3135 C.3     
   4 C4             2.4147     1.5149    -0.7830 C.3     
   5 C5             1.2330     2.0605     0.0265 C.3     
   6 C6            -0.6056    -1.1873    -0.2303 C.2     
   7 C7             0.1217    -2.3843    -0.2531 C.2     
   8 N8             1.3997    -2.0915    -0.2837 N.2     
   9 N9             1.5308    -0.7034    -0.2825 N.pl3   
  10 C10           -0.4647    -3.7725    -0.2436 C.3     
  11 O11           -1.8907    -3.6870    -0.2074 O.3     
  12 C12           -1.1684     1.7350    -0.4535 C.2     
  13 O13           -1.3460     2.9293    -0.3380 O.2     
  14 C14           -2.5790    -4.8587    -0.1945 C.ar    
  15 C15           -3.9658    -4.8497    -0.1595 C.ar    
  16 C16           -4.6631    -6.0421    -0.1465 C.ar    
  17 C17           -3.9799    -7.2441    -0.1682 C.ar    
  18 C18           -2.5978    -7.2558    -0.2026 C.ar    
  19 C19           -1.8960    -6.0660    -0.2220 C.ar    
  20 C20           -2.3146     0.8368    -0.8416 C.3     
  21 C21            0.9360     3.4986    -0.4031 C.3     
  22 H22            3.4702    -0.3543    -1.0046 H       
  23 H23            3.1922     0.1379     0.6854 H       
  24 H24            3.2801     2.1624    -0.6418 H       
  25 H25            2.1498     1.4922    -1.8401 H       
  26 H26            1.4743     2.0352     1.0891 H       
  27 H27           -1.6813    -1.0951    -0.2030 H       
  28 H28           -0.1554    -4.3038    -1.1437 H       
  29 H29           -0.1106    -4.3105     0.6357 H       
  30 H30           -4.4999    -3.9111    -0.1422 H       
  31 H31           -5.7427    -6.0356    -0.1189 H       
  32 H32           -4.5269    -8.1753    -0.1579 H       
  33 H33           -2.0664    -8.1959    -0.2188 H       
  34 H34           -0.8164    -6.0757    -0.2489 H       
  35 H35           -2.7652     0.4142     0.0564 H       
  36 H36           -3.0616     1.4153    -1.3852 H       
  37 H37           -1.9460     0.0313    -1.4768 H       
  38 H38            0.1884     3.9297     0.2628 H       
  39 H39            1.8508     4.0891    -0.3531 H       
  40 H40            0.5570     3.5016    -1.4251 H       
@<TRIPOS>BOND
   1    1    2 1
   2    1    5 1
   3    1   12 am
   4    2    6 2
   5    2    9 1
   6    3    4 1
   7    3    9 1
   8    3   22 1
   9    3   23 1
  10    4    5 1
  11    4   24 1
  12    4   25 1
  13    5   21 1
  14    5   26 1
  15    6    7 1
  16    6   27 1
  17    7    8 2
  18    7   10 1
  19    8    9 1
  20   10   11 1
  21   10   28 1
  22   10   29 1
  23   11   14 1
  24   12   13 2
  25   12   20 1
  26   14   15 ar
  27   14   19 ar
  28   15   16 ar
  29   15   30 1
  30   16   17 ar
  31   16   31 1
  32   17   18 ar
  33   17   32 1
  34   18   19 ar
  35   18   33 1
  36   19   34 1
  37   20   35 1
  38   20   36 1
  39   20   37 1
  40   21   38 1
  41   21   39 1
  42   21   40 1

#	End of record

