#	Name: ASD01209144
#	Creating user name:	WinNT
#	Creation time:	15. 06. 2019 19:11

#	Modifying user name:	WinNT
#	Modification time:	15. 06. 2019 19:11

#	Program:	/corina/corina34_cracker 3.40 0067  02.08.2006

@<TRIPOS>MOLECULE
ASD01209144
  68   71    0    0    0
SMALL
NO_CHARGES


@<TRIPOS>ATOM
   1 C1             0.0952     1.2279     0.1058 C.ar    
   2 C2             0.2565    -0.0066     0.7164 C.ar    
   3 C3            -0.8242    -0.8794     0.8252 C.ar    
   4 C4            -2.0675    -0.5121     0.3204 C.ar    
   5 C5            -2.2280     0.7293    -0.2931 C.ar    
   6 C6            -1.1421     1.6008    -0.3939 C.ar    
   7 O7             1.1518     2.0763     0.0022 O.3     
   8 C8             1.9488     1.9719    -1.0934 C.ar    
   9 C9            -0.6489    -2.2002     1.4786 C.ar    
  10 C10            0.5924    -2.5880     1.9917 C.ar    
  11 C11           -3.5468     1.1242    -0.8315 C.2     
  12 N12           -3.7006     2.3247    -1.4245 N.am    
  13 O13           -4.4927     0.3661    -0.7394 O.2     
  14 C14           -4.9398     2.6957    -1.9303 C.2     
  15 P15           -6.6388     5.0972    -5.4260 P.3     
  16 O16           -5.2322     4.7316    -5.7055 O.2     
  17 C17           -6.8742     5.2763    -3.6272 C.3     
  18 S18           -6.3509     1.7323    -1.8692 S.3     
  19 N19           -5.1962     3.8253    -2.5126 N.2     
  20 C20           -6.4327     4.0129    -2.9345 C.2     
  21 C21           -7.2610     2.9942    -2.6956 C.2     
  22 O22           -6.9860     6.4906    -6.1541 O.3     
  23 O23           -7.6140     3.9434    -5.9826 O.3     
  24 C24            3.0995     2.7410    -1.1916 C.ar    
  25 C25           -6.7997     6.7045    -7.5547 C.3     
  26 C26           -7.2262     8.1292    -7.9142 C.3     
  27 C27           -7.5917     3.4925    -7.3384 C.3     
  28 C28           -8.6402     2.3945    -7.5281 C.3     
  29 C29            0.7133    -3.8240     2.5916 C.ar    
  30 N30           -0.3221    -4.6368     2.6844 N.ar    
  31 C31           -1.5122    -4.3099     2.2131 C.ar    
  32 C32           -1.7209    -3.0866     1.6026 C.ar    
  33 F33           -2.5394    -5.1791     2.3341 F       
  34 C34            3.9079     2.6329    -2.3065 C.ar    
  35 C35            3.5713     1.7593    -3.3240 C.ar    
  36 C36            2.4252     0.9918    -3.2287 C.ar    
  37 C37            1.6163     1.0918    -2.1134 C.ar    
  38 S38            4.6044     1.6244    -4.7450 S.o2    
  39 C39            5.7884     0.3170    -4.3213 C.3     
  40 O40            3.7281     1.1887    -5.7753 O.2     
  41 O41            5.2587     2.8834    -4.8234 O.2     
  42 H42            1.2217    -0.2922     1.1080 H       
  43 H43           -2.9063    -1.1873     0.4034 H       
  44 H44           -1.2646     2.5630    -0.8689 H       
  45 H45            1.4449    -1.9289     1.9191 H       
  46 H46           -2.9459     2.9296    -1.4979 H       
  47 H47           -6.2806     6.1157    -3.2649 H       
  48 H48           -7.9278     5.4580    -3.4149 H       
  49 H49           -8.3073     2.9520    -2.9599 H       
  50 H50            3.3627     3.4237    -0.3973 H       
  51 H51           -5.7485     6.5653    -7.8068 H       
  52 H52           -7.4051     5.9918    -8.1147 H       
  53 H53           -8.2774     8.2683    -7.6620 H       
  54 H54           -6.6208     8.8419    -7.3541 H       
  55 H55           -7.0841     8.2923    -8.9825 H       
  56 H56           -7.8155     4.3273    -8.0026 H       
  57 H57           -6.6039     3.0961    -7.5733 H       
  58 H58           -8.6231     2.0506    -8.5623 H       
  59 H59           -8.4163     1.5597    -6.8639 H       
  60 H60           -9.6280     2.7909    -7.2932 H       
  61 H61            1.6688    -4.1312     2.9905 H       
  62 H62           -2.6960    -2.8247     1.2191 H       
  63 H63            4.8035     3.2316    -2.3836 H       
  64 H64            2.1643     0.3105    -4.0250 H       
  65 H65            0.7212     0.4921    -2.0393 H       
  66 H66            5.2503    -0.6092    -4.1200 H       
  67 H67            6.4750     0.1647    -5.1541 H       
  68 H68            6.3515     0.6100    -3.4352 H       
@<TRIPOS>BOND
   1    1    2 ar
   2    1    7 1
   3    1    6 ar
   4    2    3 ar
   5    2   42 1
   6    3    4 ar
   7    3    9 1
   8    4    5 ar
   9    4   43 1
  10    5    6 ar
  11    5   11 1
  12    6   44 1
  13    7    8 1
  14    8   24 ar
  15    8   37 ar
  16    9   10 ar
  17    9   32 ar
  18   10   29 ar
  19   10   45 1
  20   11   12 am
  21   11   13 2
  22   12   14 1
  23   12   46 1
  24   14   18 1
  25   14   19 2
  26   15   16 2
  27   15   22 1
  28   15   17 1
  29   15   23 1
  30   17   20 1
  31   17   47 1
  32   17   48 1
  33   18   21 1
  34   19   20 1
  35   20   21 2
  36   21   49 1
  37   22   25 1
  38   23   27 1
  39   24   34 ar
  40   24   50 1
  41   25   26 1
  42   25   51 1
  43   25   52 1
  44   26   53 1
  45   26   54 1
  46   26   55 1
  47   27   28 1
  48   27   56 1
  49   27   57 1
  50   28   58 1
  51   28   59 1
  52   28   60 1
  53   29   30 ar
  54   29   61 1
  55   30   31 ar
  56   31   32 ar
  57   31   33 1
  58   32   62 1
  59   34   35 ar
  60   34   63 1
  61   35   36 ar
  62   35   38 1
  63   36   37 ar
  64   36   64 1
  65   37   65 1
  66   38   39 1
  67   38   40 2
  68   38   41 2
  69   39   66 1
  70   39   67 1
  71   39   68 1

#	End of record

