#	Name: ASD03331424
#	Creating user name:	WinNT
#	Creation time:	15. 06. 2019 20:39

#	Modifying user name:	WinNT
#	Modification time:	15. 06. 2019 20:39

#	Program:	/corina/corina34_cracker 3.40 0067  02.08.2006

@<TRIPOS>MOLECULE
ASD03331424
  70   74    0    0    0
SMALL
NO_CHARGES


@<TRIPOS>ATOM
   1 N1            -0.3507     1.1920    -1.3929 N.am    
   2 C2            -0.6330    -0.1692    -1.8686 C.3     
   3 C3            -1.4271    -0.0799    -3.1755 C.3     
   4 C4            -0.6605     0.7889    -4.1753 C.3     
   5 C5            -0.5017     2.2018    -3.6092 C.3     
   6 C6             0.3029     2.1385    -2.3071 C.3     
   7 C7             0.7007     0.1903    -4.4202 C.2     
   8 O8             1.6540     0.9130    -4.6199 O.2     
   9 N9             0.8587    -1.1482    -4.4173 N.am    
  10 N10           -1.4031     0.8495    -5.4413 N.3     
  11 C11           -0.6786     1.6557    -6.4408 C.3     
  12 C12           -0.4589     0.7603    -7.6783 C.3     
  13 C13           -1.5662    -0.3164    -7.5315 C.3     
  14 C14           -1.6181    -0.5044    -5.9948 C.3     
  15 F15           -0.6349     1.4933    -8.8568 F       
  16 F16            0.8102     0.1725    -7.6445 F       
  17 C17           -0.6899     1.5670    -0.1436 C.2     
  18 O18           -1.3189     0.8085     0.5694 O.2     
  19 N19           -0.3685     4.8870     1.3234 N.pl3   
  20 C20           -1.1034     3.7837     1.0394 C.2     
  21 C21           -0.2988     2.8954     0.3584 C.2     
  22 C22            0.9776     3.5028     0.2325 C.2     
  23 C23            0.9046     4.7188     0.8315 C.2     
  24 C24           -2.5491     3.5662     1.4047 C.3     
  25 C25           -3.4437     4.0848     0.2770 C.3     
  26 O26           -4.8147     3.8786     0.6234 O.3     
  27 C27            2.0083     5.6974     0.9376 C.ar    
  28 C28            3.2549     5.2983     1.4251 C.ar    
  29 C29            4.2811     6.2166     1.5212 C.ar    
  30 C30            4.0759     7.5306     1.1355 C.ar    
  31 C31            2.8420     7.9316     0.6521 C.ar    
  32 C32            1.8102     7.0217     0.5459 C.ar    
  33 Cl33           5.3709     8.6801     1.2591 Cl      
  34 Cl34           3.5131     3.6513     1.9094 Cl      
  35 C35           -0.8336     6.0202     2.0043 C.ar    
  36 C36           -0.3527     6.3153     3.2730 C.ar    
  37 C37           -0.8122     7.4329     3.9417 C.ar    
  38 C38           -1.7513     8.2583     3.3484 C.ar    
  39 C39           -2.2325     7.9660     2.0842 C.ar    
  40 C40           -1.7718     6.8528     1.4091 C.ar    
  41 Cl41          -2.3270     9.6623     4.1916 Cl      
  42 H42            0.3045    -0.6961    -2.0459 H       
  43 H43           -1.2191    -0.7034    -1.1207 H       
  44 H44           -1.5602    -1.0795    -3.5894 H       
  45 H45           -2.4022     0.3658    -2.9791 H       
  46 H46            0.0239     2.8263    -4.3316 H       
  47 H47           -1.4855     2.6261    -3.4086 H       
  48 H48            0.3344     3.1268    -1.8486 H       
  49 H49            1.3168     1.7997    -2.5202 H       
  50 H50            0.0870    -1.7274    -4.3179 H       
  51 H51            1.7441    -1.5323    -4.5147 H       
  52 H52           -1.2723     2.5278    -6.7148 H       
  53 H53            0.2830     1.9714    -6.0361 H       
  54 H54           -2.5196     0.0495    -7.9126 H       
  55 H55           -1.2784    -1.2427    -8.0288 H       
  56 H56           -0.8261    -1.1782    -5.6680 H       
  57 H57           -2.5925    -0.8878    -5.6921 H       
  58 H58            1.8450     3.0773    -0.2502 H       
  59 H59           -2.7305     2.5016     1.5519 H       
  60 H60           -2.7762     4.1042     2.3251 H       
  61 H61           -3.2624     5.1495     0.1298 H       
  62 H62           -3.2167     3.5469    -0.6434 H       
  63 H63           -5.4402     4.1845    -0.0475 H       
  64 H64            5.2455     5.9098     1.8982 H       
  65 H65            2.6881     8.9579     0.3532 H       
  66 H66            0.8498     7.3350     0.1641 H       
  67 H67            0.3799     5.6712     3.7366 H       
  68 H68           -0.4387     7.6626     4.9287 H       
  69 H69           -2.9655     8.6115     1.6234 H       
  70 H70           -2.1440     6.6278     0.4205 H       
@<TRIPOS>BOND
   1    1    2 1
   2    1    6 1
   3    1   17 am
   4    2    3 1
   5    2   42 1
   6    2   43 1
   7    3    4 1
   8    3   44 1
   9    3   45 1
  10    4    5 1
  11    4    7 1
  12    4   10 1
  13    5    6 1
  14    5   46 1
  15    5   47 1
  16    6   48 1
  17    6   49 1
  18    7    8 2
  19    7    9 am
  20    9   50 1
  21    9   51 1
  22   10   11 1
  23   10   14 1
  24   11   12 1
  25   11   52 1
  26   11   53 1
  27   12   13 1
  28   12   15 1
  29   12   16 1
  30   13   14 1
  31   13   54 1
  32   13   55 1
  33   14   56 1
  34   14   57 1
  35   17   18 2
  36   17   21 1
  37   19   20 1
  38   19   23 1
  39   19   35 1
  40   20   21 2
  41   20   24 1
  42   21   22 1
  43   22   23 2
  44   22   58 1
  45   23   27 1
  46   24   25 1
  47   24   59 1
  48   24   60 1
  49   25   26 1
  50   25   61 1
  51   25   62 1
  52   26   63 1
  53   27   28 ar
  54   27   32 ar
  55   28   29 ar
  56   28   34 1
  57   29   30 ar
  58   29   64 1
  59   30   31 ar
  60   30   33 1
  61   31   32 ar
  62   31   65 1
  63   32   66 1
  64   35   36 ar
  65   35   40 ar
  66   36   37 ar
  67   36   67 1
  68   37   38 ar
  69   37   68 1
  70   38   39 ar
  71   38   41 1
  72   39   40 ar
  73   39   69 1
  74   40   70 1

#	End of record

