#	Name: ASD08830166
#	Creating user name:	WinNT
#	Creation time:	15. 06. 2019 21:19

#	Modifying user name:	WinNT
#	Modification time:	15. 06. 2019 21:19

#	Program:	/corina/corina34_cracker 3.40 0067  02.08.2006

@<TRIPOS>MOLECULE
ASD08830166
  39   42    0    0    0
SMALL
NO_CHARGES


@<TRIPOS>ATOM
   1 C1            -0.0168     1.3857     0.0097 C.ar    
   2 C2             0.0021    -0.0041     0.0020 C.ar    
   3 C3             2.4371     0.0642    -0.0209 C.ar    
   4 C4             2.3934     1.4660    -0.0126 C.ar    
   5 C5             1.2282    -0.6804    -0.0133 C.ar    
   6 C6             1.1891     2.1229     0.0021 C.ar    
   7 C7             1.2830    -2.0861    -0.0209 C.ar    
   8 C8             2.4907    -2.7133    -0.0354 C.ar    
   9 C9             3.6776    -1.9827    -0.0424 C.ar    
  10 C10            3.6644    -0.6216    -0.0354 C.ar    
  11 N11            0.9279     3.4890     0.0127 N.pl3   
  12 C12           -0.5206     3.7072     0.0279 C.3     
  13 C13           -1.1456     2.3303     0.0316 C.2     
  14 O14           -2.3282     2.0608     0.0425 O.2     
  15 C15           -0.9262     4.4689     1.2913 C.3     
  16 N16           -0.1542     5.7155     1.3805 N.3     
  17 C17           -0.6780     6.5846     2.4443 C.3     
  18 C18            0.1899     7.8420     2.5422 C.3     
  19 O19            0.2158     8.4974     1.2713 O.3     
  20 C20            0.7211     7.6799     0.2122 C.3     
  21 C21           -0.1414     6.4208     0.0907 C.3     
  22 H22           -0.9241    -0.5595     0.0082 H       
  23 H23            3.3134     2.0317    -0.0180 H       
  24 H24            0.3711    -2.6648    -0.0149 H       
  25 H25            2.5299    -3.7925    -0.0412 H       
  26 H26            4.6229    -2.5049    -0.0532 H       
  27 H27            4.5932    -0.0705    -0.0410 H       
  28 H28            1.6002     4.1883     0.0106 H       
  29 H29           -0.8268     4.2604    -0.8600 H       
  30 H30           -1.9900     4.7027     1.2488 H       
  31 H31           -0.7242     3.8529     2.1675 H       
  32 H32           -1.7042     6.8680     2.2105 H       
  33 H33           -0.6545     6.0513     3.3946 H       
  34 H34           -0.2281     8.5154     3.2905 H       
  35 H35            1.2039     7.5630     2.8286 H       
  36 H36            0.6873     8.2360    -0.7247 H       
  37 H37            1.7506     7.3961     0.4308 H       
  38 H38            0.2738     5.7679    -0.6771 H       
  39 H39           -1.1590     6.7015    -0.1808 H       
@<TRIPOS>BOND
   1    1    2 ar
   2    1    6 ar
   3    1   13 1
   4    2    5 ar
   5    2   22 1
   6    3    4 ar
   7    3    5 ar
   8    3   10 ar
   9    4    6 ar
  10    4   23 1
  11    5    7 ar
  12    6   11 1
  13    7    8 ar
  14    7   24 1
  15    8    9 ar
  16    8   25 1
  17    9   10 ar
  18    9   26 1
  19   10   27 1
  20   11   12 1
  21   11   28 1
  22   12   13 1
  23   12   15 1
  24   12   29 1
  25   13   14 2
  26   15   16 1
  27   15   30 1
  28   15   31 1
  29   16   17 1
  30   16   21 1
  31   17   18 1
  32   17   32 1
  33   17   33 1
  34   18   19 1
  35   18   34 1
  36   18   35 1
  37   19   20 1
  38   20   21 1
  39   20   36 1
  40   20   37 1
  41   21   38 1
  42   21   39 1

#	End of record

