#	Name: ASD01890389
#	Creating user name:	WinNT
#	Creation time:	15. 06. 2019 19:50

#	Modifying user name:	WinNT
#	Modification time:	15. 06. 2019 19:50

#	Program:	/corina/corina34_cracker 3.40 0067  02.08.2006

@<TRIPOS>MOLECULE
ASD01890389
  36   38    0    0    0
SMALL
NO_CHARGES


@<TRIPOS>ATOM
   1 C1            -0.6171    -0.3034    -1.3623 C.2     
   2 C2             0.0483     0.0775    -0.0649 C.3     
   3 C3             1.4142    -0.6056     0.0276 C.3     
   4 C4             2.1534    -0.1015     1.2687 C.3     
   5 O5            -0.0155    -0.9584    -2.1802 O.2     
   6 O6            -1.8799     0.0802    -1.6070 O.3     
   7 C7             1.2241    -2.0972     0.1274 C.ar    
   8 C8             1.7638    -2.9285    -0.8362 C.ar    
   9 C9             1.5898    -4.2967    -0.7453 C.ar    
  10 C10            0.8753    -4.8341     0.3105 C.ar    
  11 C11            0.3353    -4.0017     1.2747 C.ar    
  12 C12            0.5148    -2.6341     1.1856 C.ar    
  13 Cl13           0.6558    -6.5524     0.4252 Cl      
  14 S14            3.8362     1.9689     0.2898 S.3     
  15 C15            2.4657     1.3639     1.1068 C.2     
  16 N16            1.7364     2.3099     1.5647 N.2     
  17 C17            2.1381     3.5764     1.3452 C.ar    
  18 C18            3.3356     3.6239     0.6225 C.ar    
  19 C19            1.5365     4.7911     1.7308 C.ar    
  20 C20            2.1133     5.9809     1.4035 C.ar    
  21 C21            3.3004     6.0210     0.6864 C.ar    
  22 C22            3.9111     4.8500     0.2971 C.ar    
  23 H23            0.1796     1.1589    -0.0278 H       
  24 H24           -0.5750    -0.2417     0.7704 H       
  25 H25            1.9981    -0.3725    -0.8628 H       
  26 H26            1.5259    -0.2443     2.1484 H       
  27 H27            3.0819    -0.6596     1.3902 H       
  28 H28           -2.2641    -0.1880    -2.4528 H       
  29 H29            2.3213    -2.5088    -1.6606 H       
  30 H30            2.0113    -4.9460    -1.4984 H       
  31 H31           -0.2225    -4.4207     2.0990 H       
  32 H32            0.0971    -1.9845     1.9406 H       
  33 H33            0.6121     4.7785     2.2892 H       
  34 H34            1.6408     6.9039     1.7055 H       
  35 H35            3.7459     6.9718     0.4334 H       
  36 H36            4.8355     4.8820    -0.2605 H       
@<TRIPOS>BOND
   1    1    2 1
   2    1    5 2
   3    1    6 1
   4    2    3 1
   5    2   23 1
   6    2   24 1
   7    3    4 1
   8    3    7 1
   9    3   25 1
  10    4   15 1
  11    4   26 1
  12    4   27 1
  13    6   28 1
  14    7    8 ar
  15    7   12 ar
  16    8    9 ar
  17    8   29 1
  18    9   10 ar
  19    9   30 1
  20   10   11 ar
  21   10   13 1
  22   11   12 ar
  23   11   31 1
  24   12   32 1
  25   14   15 1
  26   14   18 1
  27   15   16 2
  28   16   17 1
  29   17   18 ar
  30   17   19 ar
  31   18   22 ar
  32   19   20 ar
  33   19   33 1
  34   20   21 ar
  35   20   34 1
  36   21   22 ar
  37   21   35 1
  38   22   36 1

#	End of record

