#	Name: ASD08178511
#	Creating user name:	WinNT
#	Creation time:	15. 06. 2019 21:19

#	Modifying user name:	WinNT
#	Modification time:	15. 06. 2019 21:19

#	Program:	/corina/corina34_cracker 3.40 0067  02.08.2006

@<TRIPOS>MOLECULE
ASD08178511
  30   31    0    0    0
SMALL
NO_CHARGES


@<TRIPOS>ATOM
   1 C1            -0.0155     1.2890     0.0091 C.2     
   2 N2             0.0021    -0.0041     0.0020 N.2     
   3 S3             1.6567     1.8533    -0.0038 S.3     
   4 C4             2.1881     0.1703    -0.0179 C.2     
   5 N5             1.1237    -0.5802    -0.0118 N.2     
   6 C6            -1.2455     2.1595     0.0199 C.3     
   7 C7            -1.6543     2.4468     1.4661 C.3     
   8 C8            -3.2760     3.5925     2.8518 C.3     
   9 C9            -4.5246     4.4762     2.8219 C.3     
  10 C10           -4.9581     4.7810     4.2327 C.2     
  11 N11           -4.5736     5.7885     4.9464 N.2     
  12 N12           -5.0356     5.8963     6.1148 N.2     
  13 C13           -5.8698     4.9823     6.5209 C.2     
  14 S14           -6.0866     3.8306     5.2011 S.3     
  15 N15           -6.4816     4.9268     7.7645 N.pl3   
  16 N16            3.5022    -0.2731    -0.0333 N.pl3   
  17 N17           -2.8534     3.2954     1.4766 N.3     
  18 H18           -1.0307     3.0985    -0.4902 H       
  19 H19           -2.0589     1.6455    -0.4923 H       
  20 H20           -1.8692     1.5078     1.9763 H       
  21 H21           -0.8410     2.9608     1.9783 H       
  22 H22           -2.4739     4.1144     3.3736 H       
  23 H23           -3.5021     2.6615     3.3716 H       
  24 H24           -4.2985     5.4072     2.3021 H       
  25 H25           -5.3267     3.9543     2.3001 H       
  26 H26           -6.3001     5.6133     8.4253 H       
  27 H27           -7.0909     4.2016     7.9733 H       
  28 H28            4.2303     0.3678    -0.0371 H       
  29 H29            3.6931    -1.2241    -0.0401 H       
  30 H30           -2.6999     4.1447     0.9540 H       
@<TRIPOS>BOND
   1    1    2 2
   2    1    3 1
   3    1    6 1
   4    2    5 1
   5    3    4 1
   6    4    5 2
   7    4   16 1
   8    6    7 1
   9    6   18 1
  10    6   19 1
  11    7   17 1
  12    7   20 1
  13    7   21 1
  14    8    9 1
  15    8   17 1
  16    8   22 1
  17    8   23 1
  18    9   10 1
  19    9   24 1
  20    9   25 1
  21   10   11 2
  22   10   14 1
  23   11   12 1
  24   12   13 2
  25   13   14 1
  26   13   15 1
  27   15   26 1
  28   15   27 1
  29   16   28 1
  30   16   29 1
  31   17   30 1

#	End of record

