#	Name: ASD01908263
#	Creating user name:	WinNT
#	Creation time:	15. 06. 2019 19:54

#	Modifying user name:	WinNT
#	Modification time:	15. 06. 2019 19:54

#	Program:	/corina/corina34_cracker 3.40 0067  02.08.2006

@<TRIPOS>MOLECULE
ASD01908263
  39   40    0    0    0
SMALL
NO_CHARGES


@<TRIPOS>ATOM
   1 C1            -0.2290     1.1836     0.0192 C.2     
   2 C2            -0.2547    -0.3097     0.2202 C.3     
   3 C3            -0.5515    -0.9988    -1.1132 C.3     
   4 O4             0.8229     1.7489    -0.1926 O.2     
   5 C5             1.1046    -0.7772     0.7445 C.3     
   6 N6            -1.3756     1.8901     0.0693 N.am    
   7 C7            -1.3616     3.3586    -0.0117 C.3     
   8 C8            -2.3520     3.7958    -1.0962 C.3     
   9 N9            -3.6671     3.2014    -0.8222 N.3     
  10 C10           -3.6128     1.7348    -0.8867 C.3     
  11 C11           -2.6745     1.2128     0.2002 C.3     
  12 C12           -4.6360     3.7055    -1.6940 C.ar    
  13 C13           -5.0091     5.0429    -1.6228 C.ar    
  14 C14           -5.9671     5.5377    -2.4868 C.ar    
  15 C15           -6.5543     4.7040    -3.4213 C.ar    
  16 C16           -6.1852     3.3737    -3.4943 C.ar    
  17 C17           -5.2241     2.8734    -2.6370 C.ar    
  18 N18           -7.5805     5.2372    -4.3450 N.pl3   
  19 O19           -7.9070     6.4089    -4.2816 O.2     
  20 O20           -8.0984     4.5043    -5.1684 O.2     
  21 Cl21          -4.2729     6.0895    -0.4497 Cl      
  22 H22           -1.0302    -0.5659     0.9421 H       
  23 H23            0.1737    -0.6740    -1.8593 H       
  24 H24           -0.4837    -2.0793    -0.9868 H       
  25 H25           -1.5559    -0.7339    -1.4434 H       
  26 H26            1.3160    -0.2864     1.6944 H       
  27 H27            1.0860    -1.8573     0.8899 H       
  28 H28            1.8801    -0.5211     0.0226 H       
  29 H29           -1.6594     3.7811     0.9480 H       
  30 H30           -0.3599     3.7015    -0.2708 H       
  31 H31           -2.4366     4.8825    -1.0947 H       
  32 H32           -1.9966     3.4596    -2.0702 H       
  33 H33           -4.6119     1.3268    -0.7334 H       
  34 H34           -3.2399     1.4273    -1.8637 H       
  35 H35           -2.5405     0.1376     0.0810 H       
  36 H36           -3.1010     1.4250     1.1806 H       
  37 H37           -6.2580     6.5764    -2.4322 H       
  38 H38           -6.6460     2.7255    -4.2250 H       
  39 H39           -4.9336     1.8349    -2.6977 H       
@<TRIPOS>BOND
   1    1    2 1
   2    1    4 2
   3    1    6 am
   4    2    3 1
   5    2    5 1
   6    2   22 1
   7    3   23 1
   8    3   24 1
   9    3   25 1
  10    5   26 1
  11    5   27 1
  12    5   28 1
  13    6    7 1
  14    6   11 1
  15    7    8 1
  16    7   29 1
  17    7   30 1
  18    8    9 1
  19    8   31 1
  20    8   32 1
  21    9   10 1
  22    9   12 1
  23   10   11 1
  24   10   33 1
  25   10   34 1
  26   11   35 1
  27   11   36 1
  28   12   13 ar
  29   12   17 ar
  30   13   14 ar
  31   13   21 1
  32   14   15 ar
  33   14   37 1
  34   15   16 ar
  35   15   18 1
  36   16   17 ar
  37   16   38 1
  38   17   39 1
  39   18   19 2
  40   18   20 2

#	End of record

