#	Name: ASD01915049
#	Creating user name:	WinNT
#	Creation time:	15. 06. 2019 20:04

#	Modifying user name:	WinNT
#	Modification time:	15. 06. 2019 20:04

#	Program:	/corina/corina34_cracker 3.40 0067  02.08.2006

@<TRIPOS>MOLECULE
ASD01915049
  32   34    0    0    0
SMALL
NO_CHARGES


@<TRIPOS>ATOM
   1 C1            -0.0178     1.4592     0.0101 C.2     
   2 C2             0.0021    -0.0041     0.0020 C.2     
   3 C3             1.1790    -0.6624    -0.0128 C.2     
   4 O4             1.0277     2.0819     0.0034 O.2     
   5 N5            -1.1940     2.1171     0.0192 N.am    
   6 C6             0.0049    -2.8621    -0.0134 C.ar    
   7 C7             1.1989    -2.1342    -0.0209 C.ar    
   8 C8             2.4157    -2.8312    -0.0367 C.ar    
   9 C9             2.3784    -4.2140    -0.0442 C.ar    
  10 C10            1.1545    -4.8591    -0.0359 C.ar    
  11 N11            0.0242    -4.1782    -0.0210 N.ar    
  12 C12           -1.2127     3.4999     0.0268 C.2     
  13 N13           -0.1059     4.2991     0.0259 N.pl3   
  14 C14           -0.5469     5.6114     0.0352 C.ar    
  15 C15           -1.9508     5.5513     0.0415 C.ar    
  16 N16           -2.2944     4.2371     0.0303 N.2     
  17 C17           -2.6897     6.7368     0.0519 C.ar    
  18 C18           -2.0370     7.9493     0.0558 C.ar    
  19 C19           -0.6512     8.0029     0.0491 C.ar    
  20 C20            0.0932     6.8412     0.0392 C.ar    
  21 H21           -0.9258    -0.5567     0.0079 H       
  22 H22            2.1068    -0.1097    -0.0186 H       
  23 H23           -2.0274     1.6208     0.0205 H       
  24 H24           -0.9405    -2.3402     0.0033 H       
  25 H25            3.3573    -2.3023    -0.0432 H       
  26 H26            3.2955    -4.7842    -0.0567 H       
  27 H27            1.1237    -5.9387    -0.0421 H       
  28 H28            0.8177     4.0027     0.0202 H       
  29 H29           -3.7691     6.7025     0.0565 H       
  30 H30           -2.6087     8.8656     0.0638 H       
  31 H31           -0.1514     8.9603     0.0519 H       
  32 H32            1.1721     6.8898     0.0345 H       
@<TRIPOS>BOND
   1    1    2 1
   2    1    4 2
   3    1    5 am
   4    2    3 2
   5    2   21 1
   6    3    7 1
   7    3   22 1
   8    5   12 1
   9    5   23 1
  10    6    7 ar
  11    6   11 ar
  12    6   24 1
  13    7    8 ar
  14    8    9 ar
  15    8   25 1
  16    9   10 ar
  17    9   26 1
  18   10   11 ar
  19   10   27 1
  20   12   13 1
  21   12   16 2
  22   13   14 1
  23   13   28 1
  24   14   15 ar
  25   14   20 ar
  26   15   16 1
  27   15   17 ar
  28   17   18 ar
  29   17   29 1
  30   18   19 ar
  31   18   30 1
  32   19   20 ar
  33   19   31 1
  34   20   32 1

#	End of record

