#	Name: ASD03430677
#	Creating user name:	WinNT
#	Creation time:	15. 06. 2019 20:41

#	Modifying user name:	WinNT
#	Modification time:	15. 06. 2019 20:41

#	Program:	/corina/corina34_cracker 3.40 0067  02.08.2006

@<TRIPOS>MOLECULE
ASD03430677
  57   63    0    0    0
SMALL
NO_CHARGES


@<TRIPOS>ATOM
   1 C1             2.7204     0.3450     0.1130 C.ar    
   2 C2             2.1430    -0.9042     0.0507 C.ar    
   3 C3             2.9255    -2.0175    -0.1720 C.ar    
   4 C4             4.3039    -1.8899    -0.3250 C.ar    
   5 C5             4.8772    -0.6252    -0.2704 C.ar    
   6 C6             4.0912     0.5005    -0.0556 C.ar    
   7 O7             4.8942    -3.1064    -0.5005 O.3     
   8 C8             2.6107    -3.4819    -0.3132 C.3     
   9 C9             3.8994    -4.0630    -0.9125 C.3     
  10 C10            0.9990    -4.6739     0.8279 C.ar    
  11 C11            2.2662    -4.1219     0.9989 C.ar    
  12 C12            1.4245    -3.7291    -1.2003 C.2     
  13 N13            0.5357    -4.4284    -0.4668 N.am    
  14 O14            1.2918    -3.3693    -2.3510 O.2     
  15 C15            2.9252    -4.2368     2.2028 C.ar    
  16 C16            2.3308    -4.9051     3.2576 C.ar    
  17 C17            1.0711    -5.4594     3.0997 C.ar    
  18 C18            0.4066    -5.3460     1.8938 C.ar    
  19 C19           -0.7649    -4.8785    -0.9690 C.3     
  20 C20            2.1421     1.7250     0.3574 C.3     
  21 C21            3.4097     2.5510     0.6797 C.3     
  22 O22            4.4481     1.8131     0.0138 O.3     
  23 F23            0.4898    -6.1131     4.1293 F       
  24 C24           -1.8646    -4.2207    -0.1759 C.ar    
  25 C25           -3.0045    -4.9328     0.1474 C.ar    
  26 C26           -4.0133    -4.3294     0.8749 C.ar    
  27 C27           -3.8820    -3.0141     1.2795 C.ar    
  28 C28           -2.7417    -2.3023     0.9569 C.ar    
  29 C29           -1.7310    -2.9070     0.2332 C.ar    
  30 C30           -0.8997    -4.5026    -2.4221 C.ar    
  31 C31           -0.8414    -5.4807    -3.3973 C.ar    
  32 C32           -0.9650    -5.1359    -4.7302 C.ar    
  33 C33           -1.1474    -3.8132    -5.0880 C.ar    
  34 C34           -1.2067    -2.8352    -4.1128 C.ar    
  35 C35           -1.0874    -3.1805    -2.7795 C.ar    
  36 H36            1.0758    -1.0117     0.1768 H       
  37 H37            5.9443    -0.5161    -0.3961 H       
  38 H38            3.8340    -4.1096    -1.9995 H       
  39 H39            4.1116    -5.0468    -0.4939 H       
  40 H40            3.9074    -3.8042     2.3234 H       
  41 H41            2.8474    -4.9949     4.2018 H       
  42 H42           -0.5756    -5.7798     1.7776 H       
  43 H43           -0.8396    -5.9609    -0.8652 H       
  44 H44            1.6473     2.1039    -0.5369 H       
  45 H45            1.4572     1.7158     1.2053 H       
  46 H46            3.3286     3.5581     0.2708 H       
  47 H47            3.5869     2.5826     1.7547 H       
  48 H48           -3.1071    -5.9604    -0.1686 H       
  49 H49           -4.9042    -4.8855     1.1269 H       
  50 H50           -4.6704    -2.5425     1.8472 H       
  51 H51           -2.6393    -1.2746     1.2727 H       
  52 H52           -0.8385    -2.3521    -0.0156 H       
  53 H53           -0.6989    -6.5141    -3.1178 H       
  54 H54           -0.9187    -5.8999    -5.4921 H       
  55 H55           -1.2433    -3.5437    -6.1294 H       
  56 H56           -1.3489    -1.8018    -4.3923 H       
  57 H57           -1.1374    -2.4170    -2.0174 H       
@<TRIPOS>BOND
   1    1    2 ar
   2    1    6 ar
   3    1   20 1
   4    2    3 ar
   5    2   36 1
   6    3    4 ar
   7    3    8 1
   8    4    5 ar
   9    4    7 1
  10    5    6 ar
  11    5   37 1
  12    6   22 1
  13    7    9 1
  14    8    9 1
  15    8   11 1
  16    8   12 1
  17    9   38 1
  18    9   39 1
  19   10   11 ar
  20   10   13 1
  21   10   18 ar
  22   11   15 ar
  23   12   13 am
  24   12   14 2
  25   13   19 1
  26   15   16 ar
  27   15   40 1
  28   16   17 ar
  29   16   41 1
  30   17   18 ar
  31   17   23 1
  32   18   42 1
  33   19   24 1
  34   19   30 1
  35   19   43 1
  36   20   21 1
  37   20   44 1
  38   20   45 1
  39   21   22 1
  40   21   46 1
  41   21   47 1
  42   24   25 ar
  43   24   29 ar
  44   25   26 ar
  45   25   48 1
  46   26   27 ar
  47   26   49 1
  48   27   28 ar
  49   27   50 1
  50   28   29 ar
  51   28   51 1
  52   29   52 1
  53   30   31 ar
  54   30   35 ar
  55   31   32 ar
  56   31   53 1
  57   32   33 ar
  58   32   54 1
  59   33   34 ar
  60   33   55 1
  61   34   35 ar
  62   34   56 1
  63   35   57 1

#	End of record

