#	Name: ASD00170094
#	Creating user name:	WinNT
#	Creation time:	15. 06. 2019 18:31

#	Modifying user name:	WinNT
#	Modification time:	15. 06. 2019 18:31

#	Program:	/corina/corina34_cracker 3.40 0067  02.08.2006

@<TRIPOS>MOLECULE
ASD00170094
  56   60    0    0    0
SMALL
NO_CHARGES


@<TRIPOS>ATOM
   1 C1             0.0023     1.3496    -0.0674 C.2     
   2 C2             0.0219     0.0144     0.2013 C.2     
   3 C3            -1.3118    -0.5535     0.2780 C.2     
   4 C4            -2.3019     0.3756     0.0637 C.2     
   5 S5            -1.6487     1.9222    -0.2219 S.3     
   6 N6            -3.6504     0.0928     0.0821 N.pl3   
   7 C7             1.2021     2.1973    -0.2034 C.ar    
   8 C8             2.2681     1.7816    -1.0052 C.ar    
   9 C9             3.3864     2.5795    -1.1280 C.ar    
  10 C10            3.4544     3.7889    -0.4589 C.ar    
  11 C11            2.4026     4.2069     0.3374 C.ar    
  12 C12            1.2754     3.4223     0.4646 C.ar    
  13 C13           -1.5743    -1.9651     0.5538 C.2     
  14 O14           -1.7441    -2.7441    -0.3670 O.2     
  15 C15            1.2628    -0.7689     0.3928 C.ar    
  16 C16            2.0753    -0.5341     1.5027 C.ar    
  17 C17            3.2308    -1.2677     1.6755 C.ar    
  18 C18            3.5847    -2.2345     0.7512 C.ar    
  19 C19            2.7834    -2.4722    -0.3514 C.ar    
  20 C20            1.6223    -1.7494    -0.5326 C.ar    
  21 C21           -1.6338    -2.4468     1.9499 C.ar    
  22 C22           -1.7729    -3.8118     2.2131 C.ar    
  23 C23           -1.8282    -4.2594     3.5137 C.ar    
  24 C24           -1.7454    -3.3504     4.5689 C.ar    
  25 C25           -1.6064    -1.9871     4.3071 C.ar    
  26 C26           -1.5451    -1.5381     3.0073 C.ar    
  27 C27            4.8486    -3.0318     0.9460 C.3     
  28 C28           -1.8055    -3.8336     5.9694 C.ar    
  29 C29           -1.7231    -2.9281     7.0261 C.ar    
  30 C30           -1.7796    -3.3836     8.3275 C.ar    
  31 C31           -1.9177    -4.7358     8.5845 C.ar    
  32 C32           -1.9996    -5.6391     7.5399 C.ar    
  33 C33           -1.9505    -5.1945     6.2344 C.ar    
  34 H34           -3.9565    -0.7945     0.3267 H       
  35 H35           -4.2935     0.7810    -0.1496 H       
  36 H36            2.2167     0.8377    -1.5274 H       
  37 H37            4.2111     2.2595    -1.7475 H       
  38 H38            4.3327     4.4095    -0.5584 H       
  39 H39            2.4627     5.1518     0.8570 H       
  40 H40            0.4553     3.7497     1.0864 H       
  41 H41            1.8003     0.2206     2.2247 H       
  42 H42            3.8607    -1.0867     2.5339 H       
  43 H43            3.0652    -3.2281    -1.0694 H       
  44 H44            0.9976    -1.9358    -1.3937 H       
  45 H45           -1.8374    -4.5156     1.3964 H       
  46 H46           -1.9361    -5.3145     3.7174 H       
  47 H47           -1.5424    -1.2843     5.1247 H       
  48 H48           -1.4373    -0.4827     2.8049 H       
  49 H49            4.6275    -3.9271     1.5271 H       
  50 H50            5.2502    -3.3193    -0.0256 H       
  51 H51            5.5822    -2.4257     1.4775 H       
  52 H52           -1.6148    -1.8722     6.8266 H       
  53 H53           -1.7154    -2.6830     9.1470 H       
  54 H54           -1.9615    -5.0877     9.6046 H       
  55 H55           -2.1071    -6.6936     7.7465 H       
  56 H56           -2.0149    -5.9006     5.4197 H       
@<TRIPOS>BOND
   1    1    2 2
   2    1    7 1
   3    1    5 1
   4    2    3 1
   5    2   15 1
   6    3    4 2
   7    3   13 1
   8    4    5 1
   9    4    6 1
  10    6   34 1
  11    6   35 1
  12    7    8 ar
  13    7   12 ar
  14    8    9 ar
  15    8   36 1
  16    9   10 ar
  17    9   37 1
  18   10   11 ar
  19   10   38 1
  20   11   12 ar
  21   11   39 1
  22   12   40 1
  23   13   14 2
  24   13   21 1
  25   15   16 ar
  26   15   20 ar
  27   16   17 ar
  28   16   41 1
  29   17   18 ar
  30   17   42 1
  31   18   19 ar
  32   18   27 1
  33   19   20 ar
  34   19   43 1
  35   20   44 1
  36   21   22 ar
  37   21   26 ar
  38   22   23 ar
  39   22   45 1
  40   23   24 ar
  41   23   46 1
  42   24   25 ar
  43   24   28 1
  44   25   26 ar
  45   25   47 1
  46   26   48 1
  47   27   49 1
  48   27   50 1
  49   27   51 1
  50   28   29 ar
  51   28   33 ar
  52   29   30 ar
  53   29   52 1
  54   30   31 ar
  55   30   53 1
  56   31   32 ar
  57   31   54 1
  58   32   33 ar
  59   32   55 1
  60   33   56 1

#	End of record

