#	Name: ASD05430085
#	Creating user name:	WinNT
#	Creation time:	15. 06. 2019 20:59

#	Modifying user name:	WinNT
#	Modification time:	15. 06. 2019 20:59

#	Program:	/corina/corina34_cracker 3.40 0067  02.08.2006

@<TRIPOS>MOLECULE
ASD05430085
  67   72    0    0    0
SMALL
NO_CHARGES


@<TRIPOS>ATOM
   1 C1             1.1643    -0.4947    -0.9323 C.ar    
   2 C2             0.0138    -0.0037    -0.3162 C.ar    
   3 C3             0.0569     1.1896     0.3928 C.ar    
   4 C4             1.2370     1.8944     0.4911 C.ar    
   5 C5             2.3952     1.4081    -0.1242 C.ar    
   6 C6             2.3516     0.2066    -0.8381 C.ar    
   7 C7             4.8672    -0.0037     0.2156 C.3     
   8 C8             4.8285     1.5000     0.0665 C.2     
   9 C9             3.6566     2.1595    -0.0209 C.2     
  10 C10            6.2169    -0.4431     0.7863 C.3     
  11 C11            6.8647     0.5964     1.7062 C.3     
  12 N12            7.0846     1.8303     0.9502 N.pl3   
  13 C13            6.1096     2.2210     0.0202 C.2     
  14 C14            8.2635     2.6686     1.1601 C.3     
  15 C15            8.7530     3.1834    -0.1983 C.3     
  16 N16            7.6208     3.7272    -0.9519 N.pl3   
  17 N17            6.3501     3.1486    -0.8510 N.2     
  18 C18            7.9025     3.8360     2.0421 C.ar    
  19 C19            8.8641     4.7700     2.3797 C.ar    
  20 C20            8.5340     5.8412     3.1881 C.ar    
  21 C21            7.2396     5.9786     3.6601 C.ar    
  22 C22            6.2773     5.0425     3.3213 C.ar    
  23 C23            6.6085     3.9750     2.5085 C.ar    
  24 F24            6.9159     7.0251     4.4508 F       
  25 N25           -1.1900    -0.7164    -0.4133 N.pl3   
  26 C26           -2.0189    -1.0606     0.6227 C.2     
  27 C27           -3.0547    -1.7340     0.0864 C.2     
  28 N28           -2.8681    -1.8020    -1.2400 N.2     
  29 C29           -1.7576    -1.1909    -1.5522 C.2     
  30 C30            2.3354    -2.1094    -2.2266 C.3     
  31 O31            1.1195    -1.6661    -1.6208 O.3     
  32 C32            6.1703    -1.8402     1.4132 C.3     
  33 S33            7.8931    -2.1170     0.9174 S.o     
  34 C34            7.1765    -0.9654    -0.2872 C.3     
  35 O35            8.7580    -1.4080     1.7940 O.2     
  36 C36           -4.2212    -2.3118     0.8456 C.3     
  37 C37            9.3678     1.8434     1.8238 C.3     
  38 H38           -0.8367     1.5664     0.8681 H       
  39 H39            1.2675     2.8223     1.0429 H       
  40 H40            3.2436    -0.1727    -1.3145 H       
  41 H41            4.0702    -0.3205     0.8883 H       
  42 H42            4.7193    -0.4673    -0.7598 H       
  43 H43            3.6429     3.2394    -0.0151 H       
  44 H44            6.2050     0.7983     2.5500 H       
  45 H45            7.8193     0.2167     2.0703 H       
  46 H46            9.4960     3.9658    -0.0440 H       
  47 H47            9.2011     2.3623    -0.7579 H       
  48 H48            7.7530     4.4967    -1.5274 H       
  49 H49            9.8738     4.6624     2.0117 H       
  50 H50            9.2855     6.5706     3.4519 H       
  51 H51            5.2674     5.1486     3.6889 H       
  52 H52            5.8581     3.2447     2.2441 H       
  53 H53           -1.8699    -0.8353     1.6684 H       
  54 H54           -1.3538    -1.0870    -2.5485 H       
  55 H55            2.1610    -3.0535    -2.7428 H       
  56 H56            2.6784    -1.3621    -2.9421 H       
  57 H57            3.0943    -2.2509    -1.4571 H       
  58 H58            6.0335    -1.8202     2.4944 H       
  59 H59            5.4685    -2.5097     0.9159 H       
  60 H60            6.6670    -1.4677    -1.1095 H       
  61 H61            7.8840    -0.2117    -0.6327 H       
  62 H62           -5.0158    -1.5686     0.9116 H       
  63 H63           -4.5920    -3.1948     0.3250 H       
  64 H64           -3.8997    -2.5901     1.8492 H       
  65 H65            9.6303     1.0036     1.1805 H       
  66 H66           10.2459     2.4701     1.9795 H       
  67 H67            9.0139     1.4687     2.7843 H       
@<TRIPOS>BOND
   1    1    2 ar
   2    1    6 ar
   3    1   31 1
   4    2    3 ar
   5    2   25 1
   6    3    4 ar
   7    3   38 1
   8    4    5 ar
   9    4   39 1
  10    5    6 ar
  11    5    9 1
  12    6   40 1
  13    7    8 1
  14    7   10 1
  15    7   41 1
  16    7   42 1
  17    8    9 2
  18    8   13 1
  19    9   43 1
  20   10   11 1
  21   10   32 1
  22   10   34 1
  23   11   12 1
  24   11   44 1
  25   11   45 1
  26   12   13 1
  27   12   14 1
  28   13   17 2
  29   14   15 1
  30   14   18 1
  31   14   37 1
  32   15   16 1
  33   15   46 1
  34   15   47 1
  35   16   17 1
  36   16   48 1
  37   18   19 ar
  38   18   23 ar
  39   19   20 ar
  40   19   49 1
  41   20   21 ar
  42   20   50 1
  43   21   22 ar
  44   21   24 1
  45   22   23 ar
  46   22   51 1
  47   23   52 1
  48   25   26 1
  49   25   29 1
  50   26   27 2
  51   26   53 1
  52   27   28 1
  53   27   36 1
  54   28   29 2
  55   29   54 1
  56   30   31 1
  57   30   55 1
  58   30   56 1
  59   30   57 1
  60   32   33 1
  61   32   58 1
  62   32   59 1
  63   33   34 1
  64   33   35 2
  65   34   60 1
  66   34   61 1
  67   36   62 1
  68   36   63 1
  69   36   64 1
  70   37   65 1
  71   37   66 1
  72   37   67 1

#	End of record

