#	Name: ASD03240343
#	Creating user name:	WinNT
#	Creation time:	15. 06. 2019 20:34

#	Modifying user name:	WinNT
#	Modification time:	15. 06. 2019 20:34

#	Program:	/corina/corina34_cracker 3.40 0067  02.08.2006

@<TRIPOS>MOLECULE
ASD03240343
  99  105    0    0    0
SMALL
NO_CHARGES


@<TRIPOS>ATOM
   1 C1             0.0785     1.5245     0.6296 C.2     
   2 N2             0.1834     0.2879     1.2214 N.pl3   
   3 C3            -2.6672     4.0270     0.1599 C.3     
   4 C4            -1.2354     3.5091     0.0089 C.3     
   5 N5            -1.1236     2.1915     0.6395 N.pl3   
   6 N6             1.1201     2.0667     0.0639 N.2     
   7 N7            -2.7790     5.3446    -0.4707 N.pl3   
   8 C8            -3.9932     6.0184    -0.4607 C.ar    
   9 C9            -4.1001     7.2800    -1.0646 C.ar    
  10 C10           -5.3153     7.9502    -1.0525 C.ar    
  11 C11           -6.4245     7.3648    -0.4394 C.ar    
  12 C12           -6.3086     6.1066     0.1602 C.ar    
  13 C13           -5.1042     5.4399     0.1428 C.ar    
  14 C14           -7.7183     8.0734    -0.4235 C.2     
  15 N15           -8.7890     7.5080     0.1685 N.am    
  16 O16           -7.8187     9.1676    -0.9445 O.2     
  17 C17           -9.9865     8.2258     0.2828 C.ar    
  18 C18          -11.2040     7.5648     0.1875 C.ar    
  19 C19           -9.9560     9.5976     0.4969 C.ar    
  20 C20          -11.1361    10.3050     0.6099 C.ar    
  21 C21          -12.3539     9.6449     0.5090 C.ar    
  22 C22          -12.3843     8.2722     0.2995 C.ar    
  23 N23          -13.5498    10.3616     0.6240 N.pl3   
  24 C24          -14.8343     9.6651     0.5175 C.3     
  25 C25          -13.5177    11.8085     0.8509 C.3     
  26 C26           -2.9174     7.8963    -1.7138 C.ar    
  27 C27           -3.0152     8.4039    -3.0081 C.ar    
  28 C28           -1.9116     8.9766    -3.6071 C.ar    
  29 C29           -0.7100     9.0470    -2.9255 C.ar    
  30 C30           -0.6071     8.5445    -1.6409 C.ar    
  31 C31           -1.7058     7.9751    -1.0297 C.ar    
  32 C32          -13.5097    12.5249    -0.4749 C.ar    
  33 C33          -15.2717     9.2062     1.8846 C.ar    
  34 C34          -14.7052    12.8780    -1.0746 C.ar    
  35 C35          -14.7037    13.5341    -2.2888 C.ar    
  36 C36          -13.4950    13.8408    -2.9106 C.ar    
  37 C37          -12.2938    13.4828    -2.3020 C.ar    
  38 C38          -12.3069    12.8318    -1.0850 C.ar    
  39 C39          -16.0485    10.0350     2.6739 C.ar    
  40 C40          -16.4519     9.6197     3.9268 C.ar    
  41 C41          -16.0753     8.3630     4.3961 C.ar    
  42 C42          -15.2928     7.5322     3.5968 C.ar    
  43 C43          -14.8997     7.9554     2.3433 C.ar    
  44 C44          -13.4872    14.5457    -4.2164 C.ar    
  45 C45          -16.5056     7.9112     5.7425 C.ar    
  46 C46          -12.2785    14.8524    -4.8381 C.ar    
  47 C47          -12.2771    15.5082    -6.0526 C.ar    
  48 C48          -13.4725    15.8614    -6.6522 C.ar    
  49 C49          -14.6752    15.5598    -6.0391 C.ar    
  50 C50          -14.6885    14.8983    -4.8279 C.ar    
  51 C51          -16.1290     6.6545     6.2118 C.ar    
  52 C52          -16.5321     6.2394     7.4649 C.ar    
  53 C53          -17.3089     7.0682     8.2541 C.ar    
  54 C54          -17.6860     8.3165     7.7930 C.ar    
  55 C55          -17.2830     8.7445     6.5443 C.ar    
  56 H56            1.0325    -0.1810     1.2179 H       
  57 H57           -0.5917    -0.1156     1.6424 H       
  58 H58           -3.3569     3.3339    -0.3219 H       
  59 H59           -2.9143     4.1086     1.2183 H       
  60 H60           -0.9883     3.4275    -1.0496 H       
  61 H61           -0.5457     4.2022     0.4907 H       
  62 H62           -1.8978     1.7898     1.0640 H       
  63 H63            1.0461     2.9391    -0.3536 H       
  64 H64           -2.0048     5.7463    -0.8952 H       
  65 H65           -5.4025     8.9219    -1.5158 H       
  66 H66           -7.1674     5.6550     0.6345 H       
  67 H67           -5.0199     4.4683     0.6069 H       
  68 H68           -8.7303     6.6041     0.5155 H       
  69 H69          -11.2276     6.4973     0.0253 H       
  70 H70           -9.0090    10.1109     0.5754 H       
  71 H71          -11.1124    11.3718     0.7772 H       
  72 H72          -13.3311     7.7587     0.2210 H       
  73 H73          -15.5820    10.3428     0.1053 H       
  74 H74          -14.7260     8.8013    -0.1384 H       
  75 H75          -14.3985    12.1067     1.4197 H       
  76 H76          -12.6189    12.0688     1.4099 H       
  77 H77           -3.9527     8.3488    -3.5415 H       
  78 H78           -1.9862     9.3703    -4.6100 H       
  79 H79            0.1511     9.4958    -3.3982 H       
  80 H80            0.3336     8.6018    -1.1135 H       
  81 H81           -1.6244     7.5834    -0.0266 H       
  82 H82          -15.6414    12.6395    -0.5919 H       
  83 H83          -15.6376    13.8091    -2.7563 H       
  84 H84          -11.3542    13.7181    -2.7796 H       
  85 H85          -11.3764    12.5538    -0.6124 H       
  86 H86          -16.3396    11.0090     2.3092 H       
  87 H87          -17.0581    10.2678     4.5423 H       
  88 H88          -14.9980     6.5571     3.9557 H       
  89 H89          -14.2931     7.3122     1.7229 H       
  90 H90          -11.3446    14.5778    -4.3705 H       
  91 H91          -11.3408    15.7464    -6.5354 H       
  92 H92          -13.4668    16.3748    -7.6023 H       
  93 H93          -15.6057    15.8382    -6.5115 H       
  94 H94          -15.6282    14.6631    -4.3502 H       
  95 H95          -15.5231     6.0063     5.5961 H       
  96 H96          -16.2407     5.2655     7.8297 H       
  97 H97          -17.6224     6.7392     9.2339 H       
  98 H98          -18.2929     8.9595     8.4132 H       
  99 H99          -17.5778     9.7195     6.1853 H       
@<TRIPOS>BOND
   1    1    2 1
   2    1    6 2
   3    1    5 1
   4    2   56 1
   5    2   57 1
   6    3    4 1
   7    3    7 1
   8    3   58 1
   9    3   59 1
  10    4    5 1
  11    4   60 1
  12    4   61 1
  13    5   62 1
  14    6   63 1
  15    7    8 1
  16    7   64 1
  17    8    9 ar
  18    8   13 ar
  19    9   10 ar
  20    9   26 1
  21   10   11 ar
  22   10   65 1
  23   11   12 ar
  24   11   14 1
  25   12   13 ar
  26   12   66 1
  27   13   67 1
  28   14   15 am
  29   14   16 2
  30   15   17 1
  31   15   68 1
  32   17   18 ar
  33   17   19 ar
  34   18   22 ar
  35   18   69 1
  36   19   20 ar
  37   19   70 1
  38   20   21 ar
  39   20   71 1
  40   21   22 ar
  41   21   23 1
  42   22   72 1
  43   23   24 1
  44   23   25 1
  45   24   33 1
  46   24   73 1
  47   24   74 1
  48   25   32 1
  49   25   75 1
  50   25   76 1
  51   26   27 ar
  52   26   31 ar
  53   27   28 ar
  54   27   77 1
  55   28   29 ar
  56   28   78 1
  57   29   30 ar
  58   29   79 1
  59   30   31 ar
  60   30   80 1
  61   31   81 1
  62   32   34 ar
  63   32   38 ar
  64   33   39 ar
  65   33   43 ar
  66   34   35 ar
  67   34   82 1
  68   35   36 ar
  69   35   83 1
  70   36   37 ar
  71   36   44 1
  72   37   38 ar
  73   37   84 1
  74   38   85 1
  75   39   40 ar
  76   39   86 1
  77   40   41 ar
  78   40   87 1
  79   41   42 ar
  80   41   45 1
  81   42   43 ar
  82   42   88 1
  83   43   89 1
  84   44   46 ar
  85   44   50 ar
  86   45   51 ar
  87   45   55 ar
  88   46   47 ar
  89   46   90 1
  90   47   48 ar
  91   47   91 1
  92   48   49 ar
  93   48   92 1
  94   49   50 ar
  95   49   93 1
  96   50   94 1
  97   51   52 ar
  98   51   95 1
  99   52   53 ar
 100   52   96 1
 101   53   54 ar
 102   53   97 1
 103   54   55 ar
 104   54   98 1
 105   55   99 1

#	End of record

