#	Name: ASD01901067
#	Creating user name:	WinNT
#	Creation time:	15. 06. 2019 19:53

#	Modifying user name:	WinNT
#	Modification time:	15. 06. 2019 19:53

#	Program:	/corina/corina34_cracker 3.40 0067  02.08.2006

@<TRIPOS>MOLECULE
ASD01901067
  30   31    0    0    0
SMALL
NO_CHARGES


@<TRIPOS>ATOM
   1 C1            -0.0184     1.5028     0.0103 C.2     
   2 C2             0.0021    -0.0041     0.0020 C.3     
   3 C3             1.2402     2.2524     0.0023 C.ar    
   4 C4             1.2252     3.6591     0.0100 C.ar    
   5 C5             2.4210     4.3555     0.0023 C.ar    
   6 C6             3.6246     3.6647    -0.0130 C.ar    
   7 C7             3.6362     2.2724    -0.0210 C.ar    
   8 C8             2.4652     1.5719    -0.0072 C.ar    
   9 O9             4.7957     4.3494    -0.0205 O.3     
  10 O10            0.0460     4.3286     0.0245 O.3     
  11 O11           -1.3386    -0.4987     0.0122 O.3     
  12 C12           -1.4983    -1.8484     0.0064 C.ar    
  13 C13           -2.7733    -2.3978     0.0157 C.ar    
  14 C14           -2.9327    -3.7705     0.0099 C.ar    
  15 C15           -1.8235    -4.5962    -0.0051 C.ar    
  16 C16           -0.5531    -4.0513    -0.0139 C.ar    
  17 C17           -0.3882    -2.6792    -0.0144 C.ar    
  18 Br18          -4.2902    -1.2689     0.0368 Br      
  19 O19           -1.0773     2.0951     0.0185 O.2     
  20 H20            0.5123    -0.3556    -0.8948 H       
  21 H21            0.5293    -0.3651     0.8851 H       
  22 H22            2.4177     5.4355     0.0078 H       
  23 H23            4.5778     1.7436    -0.0336 H       
  24 H24            2.4824     0.4920    -0.0083 H       
  25 H25            5.1437     4.5432     0.8606 H       
  26 H26           -0.2879     4.5181     0.9120 H       
  27 H27           -3.9241    -4.1987     0.0174 H       
  28 H28           -1.9500    -5.6688    -0.0096 H       
  29 H29            0.3114    -4.6985    -0.0252 H       
  30 H30            0.6046    -2.2543    -0.0264 H       
@<TRIPOS>BOND
   1    1    2 1
   2    1    3 1
   3    1   19 2
   4    2   11 1
   5    2   20 1
   6    2   21 1
   7    3    4 ar
   8    3    8 ar
   9    4    5 ar
  10    4   10 1
  11    5    6 ar
  12    5   22 1
  13    6    7 ar
  14    6    9 1
  15    7    8 ar
  16    7   23 1
  17    8   24 1
  18    9   25 1
  19   10   26 1
  20   11   12 1
  21   12   13 ar
  22   12   17 ar
  23   13   14 ar
  24   13   18 1
  25   14   15 ar
  26   14   27 1
  27   15   16 ar
  28   15   28 1
  29   16   17 ar
  30   16   29 1
  31   17   30 1

#	End of record

