#	Name: ASD03430720
#	Creating user name:	WinNT
#	Creation time:	15. 06. 2019 20:41

#	Modifying user name:	WinNT
#	Modification time:	15. 06. 2019 20:41

#	Program:	/corina/corina34_cracker 3.40 0067  02.08.2006

@<TRIPOS>MOLECULE
ASD03430720
  79   87    0    0    0
SMALL
NO_CHARGES


@<TRIPOS>ATOM
   1 C1             4.0813    -0.8823    -1.0995 C.ar    
   2 C2             3.1850    -1.8984    -0.8058 C.ar    
   3 C3             3.6238    -3.0589    -0.2038 C.ar    
   4 C4             4.9662    -3.2220     0.1250 C.ar    
   5 C5             5.8638    -2.2027    -0.1761 C.ar    
   6 C6             5.4260    -1.0378    -0.7834 C.ar    
   7 O7             5.1830    -4.4220     0.7359 O.3     
   8 C8             2.9231    -4.3238     0.2134 C.3     
   9 C9             4.0792    -5.3041     0.4562 C.3     
  10 C10            0.7941    -4.5125     1.0787 C.ar    
  11 C11            2.0826    -4.1346     1.4408 C.ar    
  12 C12            1.9795    -4.8277    -0.8408 C.2     
  13 N13            0.7663    -4.9134    -0.2597 N.am    
  14 O14            2.2549    -5.1033    -1.9894 O.2     
  15 C15            2.3514    -3.6938     2.7289 C.ar    
  16 C16            1.3229    -3.6309     3.6693 C.ar    
  17 C17            0.0442    -4.0081     3.3109 C.ar    
  18 C18           -0.2228    -4.4454     2.0291 C.ar    
  19 C19           -0.4406    -5.3740    -0.9505 C.3     
  20 O20            3.6321     0.2542    -1.6999 O.3     
  21 C21            4.4928     1.3969    -1.6382 C.3     
  22 C22            5.9146     0.9464    -2.0002 C.3     
  23 O23            6.3234    -0.0518    -1.0599 O.3     
  24 C24            3.7289    -3.2911     3.1051 C.ar    
  25 C25            4.3961    -3.9587     4.1308 C.ar    
  26 C26            5.6763    -3.5822     4.4783 C.ar    
  27 C27            6.3009    -2.5390     3.8075 C.ar    
  28 C28            5.6385    -1.8719     2.7856 C.ar    
  29 C29            4.3605    -2.2482     2.4297 C.ar    
  30 O30            7.5622    -2.1702     4.1520 O.3     
  31 C31            7.7133    -1.0745     4.9413 C.ar    
  32 C32            8.9766    -0.7007     5.3769 C.ar    
  33 C33            9.1275     0.4139     6.1789 C.ar    
  34 C34            8.0211     1.1566     6.5479 C.ar    
  35 C35            6.7612     0.7862     6.1151 C.ar    
  36 C36            6.6053    -0.3242     5.3083 C.ar    
  37 C37           -1.6176    -4.5390    -0.5162 C.ar    
  38 C38           -2.8160    -5.1482    -0.1944 C.ar    
  39 C39           -3.8956    -4.3823     0.2039 C.ar    
  40 C40           -3.7767    -3.0072     0.2808 C.ar    
  41 C41           -2.5780    -2.3981    -0.0401 C.ar    
  42 C42           -1.4971    -3.1644    -0.4343 C.ar    
  43 C43           -0.2502    -5.2379    -2.4392 C.ar    
  44 C44           -0.4022    -6.3405    -3.2591 C.ar    
  45 C45           -0.2275    -6.2157    -4.6247 C.ar    
  46 C46            0.0988    -4.9882    -5.1704 C.ar    
  47 C47            0.2499    -3.8855    -4.3506 C.ar    
  48 C48            0.0709    -4.0094    -2.9855 C.ar    
  49 H49            2.1394    -1.7805    -1.0491 H       
  50 H50            6.9097    -2.3207     0.0658 H       
  51 H51            4.2758    -5.8993    -0.4356 H       
  52 H52            3.8696    -5.9453     1.3124 H       
  53 H53            1.5261    -3.2890     4.6734 H       
  54 H54           -0.7526    -3.9610     4.0384 H       
  55 H55           -1.2274    -4.7373     1.7607 H       
  56 H56           -0.6251    -6.4191    -0.7018 H       
  57 H57            4.1540     2.1512    -2.3485 H       
  58 H58            4.4836     1.8102    -0.6297 H       
  59 H59            5.9221     0.5264    -3.0060 H       
  60 H60            6.5934     1.7978    -1.9517 H       
  61 H61            3.9107    -4.7698     4.6531 H       
  62 H62            6.1936    -4.0989     5.2732 H       
  63 H63            6.1264    -1.0604     2.2660 H       
  64 H64            3.8458    -1.7291     1.6346 H       
  65 H65            9.8410    -1.2808     5.0896 H       
  66 H66           10.1106     0.7053     6.5182 H       
  67 H67            8.1412     2.0272     7.1755 H       
  68 H68            5.8985     1.3678     6.4051 H       
  69 H69            5.6210    -0.6130     4.9706 H       
  70 H70           -2.9090    -6.2225    -0.2545 H       
  71 H71           -4.8322    -4.8581     0.4546 H       
  72 H72           -4.6204    -2.4087     0.5913 H       
  73 H73           -2.4852    -1.3237     0.0197 H       
  74 H74           -0.5594    -2.6888    -0.6814 H       
  75 H75           -0.6571    -7.2994    -2.8327 H       
  76 H76           -0.3455    -7.0772    -5.2652 H       
  77 H77            0.2360    -4.8909    -6.2372 H       
  78 H78            0.5052    -2.9266    -4.7770 H       
  79 H79            0.1853    -3.1471    -2.3454 H       
@<TRIPOS>BOND
   1    1    2 ar
   2    1    6 ar
   3    1   20 1
   4    2    3 ar
   5    2   49 1
   6    3    4 ar
   7    3    8 1
   8    4    5 ar
   9    4    7 1
  10    5    6 ar
  11    5   50 1
  12    6   23 1
  13    7    9 1
  14    8    9 1
  15    8   11 1
  16    8   12 1
  17    9   51 1
  18    9   52 1
  19   10   11 ar
  20   10   13 1
  21   10   18 ar
  22   11   15 ar
  23   12   13 am
  24   12   14 2
  25   13   19 1
  26   15   16 ar
  27   15   24 1
  28   16   17 ar
  29   16   53 1
  30   17   18 ar
  31   17   54 1
  32   18   55 1
  33   19   37 1
  34   19   43 1
  35   19   56 1
  36   20   21 1
  37   21   22 1
  38   21   57 1
  39   21   58 1
  40   22   23 1
  41   22   59 1
  42   22   60 1
  43   24   25 ar
  44   24   29 ar
  45   25   26 ar
  46   25   61 1
  47   26   27 ar
  48   26   62 1
  49   27   28 ar
  50   27   30 1
  51   28   29 ar
  52   28   63 1
  53   29   64 1
  54   30   31 1
  55   31   32 ar
  56   31   36 ar
  57   32   33 ar
  58   32   65 1
  59   33   34 ar
  60   33   66 1
  61   34   35 ar
  62   34   67 1
  63   35   36 ar
  64   35   68 1
  65   36   69 1
  66   37   38 ar
  67   37   42 ar
  68   38   39 ar
  69   38   70 1
  70   39   40 ar
  71   39   71 1
  72   40   41 ar
  73   40   72 1
  74   41   42 ar
  75   41   73 1
  76   42   74 1
  77   43   44 ar
  78   43   48 ar
  79   44   45 ar
  80   44   75 1
  81   45   46 ar
  82   45   76 1
  83   46   47 ar
  84   46   77 1
  85   47   48 ar
  86   47   78 1
  87   48   79 1

#	End of record

