#	Name: ASD01910118
#	Creating user name:	WinNT
#	Creation time:	15. 06. 2019 19:55

#	Modifying user name:	WinNT
#	Modification time:	15. 06. 2019 19:55

#	Program:	/corina/corina34_cracker 3.40 0067  02.08.2006

@<TRIPOS>MOLECULE
ASD01910118
  49   52    0    0    0
SMALL
NO_CHARGES


@<TRIPOS>ATOM
   1 C1            -0.1216     0.5368    -0.3984 C.ar    
   2 C2            -0.3093    -0.8370    -0.4569 C.ar    
   3 C3            -1.5833    -1.3731    -0.3966 C.ar    
   4 C4            -2.6803    -0.5325    -0.2765 C.ar    
   5 C5            -2.4926     0.8648    -0.2162 C.ar    
   6 C6            -1.2150     1.3915    -0.2723 C.ar    
   7 C7            -4.1374    -0.7484    -0.1867 C.2     
   8 N8            -4.7438     0.4476    -0.0819 N.am    
   9 C9            -3.8453     1.4488    -0.0918 C.2     
  10 C10           -6.1925     0.6354     0.0279 C.3     
  11 C11           -6.6118     0.4773     1.4668 C.ar    
  12 C12           -6.4986     1.5469     2.3452 C.ar    
  13 C13           -6.8859     1.3977     3.6708 C.ar    
  14 C14           -7.3824     0.1871     4.1116 C.ar    
  15 C15           -7.4943    -0.8774     3.2340 C.ar    
  16 C16           -7.1145    -0.7298     1.9117 C.ar    
  17 N17           -5.9948     2.7721     1.8960 N.am    
  18 C18           -5.4788     3.6521     2.7768 C.2     
  19 C19           -5.0532     4.9951     2.3189 C.ar    
  20 O20           -5.3626     3.3439     3.9466 O.2     
  21 O21           -4.1020     2.6331    -0.0123 O.2     
  22 O22           -4.6962    -1.8269    -0.2048 O.2     
  23 Cl23          -8.1184    -2.3983     3.7917 Cl      
  24 C24           -4.5207     5.9001     3.2340 C.ar    
  25 C25           -4.1265     7.1529     2.7905 C.ar    
  26 C26           -4.2788     7.4566     1.4469 C.ar    
  27 C27           -4.8164     6.5071     0.5924 C.ar    
  28 N28           -5.1776     5.3241     1.0388 N.ar    
  29 O29            1.1333     1.0501    -0.4585 O.3     
  30 C30            2.2100     0.1186    -0.5815 C.3     
  31 C31            3.5375     0.8776    -0.6339 C.3     
  32 H32            0.5446    -1.4917    -0.5504 H       
  33 H33           -1.7235    -2.4430    -0.4433 H       
  34 H34           -1.0660     2.4602    -0.2266 H       
  35 H35           -6.4569     1.6340    -0.3199 H       
  36 H36           -6.7028    -0.1092    -0.5831 H       
  37 H37           -6.7985     2.2279     4.3561 H       
  38 H38           -7.6834     0.0705     5.1423 H       
  39 H39           -7.2028    -1.5620     1.2289 H       
  40 H40           -6.0169     2.9883     0.9507 H       
  41 H41           -4.4166     5.6297     4.2745 H       
  42 H42           -3.7104     7.8759     3.4765 H       
  43 H43           -3.9818     8.4240     1.0695 H       
  44 H44           -4.9365     6.7405    -0.4552 H       
  45 H45            2.2092    -0.5531     0.2769 H       
  46 H46            2.0864    -0.4608    -1.4964 H       
  47 H47            4.3588     0.1671    -0.7277 H       
  48 H48            3.5383     1.5494    -1.4923 H       
  49 H49            3.6611     1.4570     0.2810 H       
@<TRIPOS>BOND
   1    1    2 ar
   2    1   29 1
   3    1    6 ar
   4    2    3 ar
   5    2   32 1
   6    3    4 ar
   7    3   33 1
   8    4    5 ar
   9    4    7 1
  10    5    6 ar
  11    5    9 1
  12    6   34 1
  13    7    8 am
  14    7   22 2
  15    8    9 am
  16    8   10 1
  17    9   21 2
  18   10   11 1
  19   10   35 1
  20   10   36 1
  21   11   12 ar
  22   11   16 ar
  23   12   13 ar
  24   12   17 1
  25   13   14 ar
  26   13   37 1
  27   14   15 ar
  28   14   38 1
  29   15   16 ar
  30   15   23 1
  31   16   39 1
  32   17   18 am
  33   17   40 1
  34   18   19 1
  35   18   20 2
  36   19   24 ar
  37   19   28 ar
  38   24   25 ar
  39   24   41 1
  40   25   26 ar
  41   25   42 1
  42   26   27 ar
  43   26   43 1
  44   27   28 ar
  45   27   44 1
  46   29   30 1
  47   30   31 1
  48   30   45 1
  49   30   46 1
  50   31   47 1
  51   31   48 1
  52   31   49 1

#	End of record

