#	Name: ASD01882029
#	Creating user name:	WinNT
#	Creation time:	15. 06. 2019 19:43

#	Modifying user name:	WinNT
#	Modification time:	15. 06. 2019 19:43

#	Program:	/corina/corina34_cracker 3.40 0067  02.08.2006

@<TRIPOS>MOLECULE
ASD01882029
  52   56    0    0    0
SMALL
NO_CHARGES


@<TRIPOS>ATOM
   1 C1             0.0367     1.5554    -0.2399 C.2     
   2 N2            -0.0900     0.2237    -0.2651 N.am    
   3 C3             1.1013    -0.3916    -0.1302 C.2     
   4 C4             2.1243     0.7196    -0.0015 C.3     
   5 N5             1.3145     1.9472    -0.0870 N.am    
   6 O6            -0.8976     2.3251    -0.3483 O.2     
   7 O7             1.3112    -1.5856    -0.1142 O.2     
   8 C8            -1.3663    -0.4788    -0.4195 C.3     
   9 C9             1.8052     3.3259    -0.0195 C.3     
  10 C10            1.8082     3.7884     1.4148 C.ar    
  11 C11            2.9315     3.5943     2.1990 C.ar    
  12 C12            2.9400     4.0156     3.5129 C.ar    
  13 C13            1.8139     4.6379     4.0499 C.ar    
  14 C14            0.6852     4.8308     3.2551 C.ar    
  15 C15            0.6902     4.4102     1.9405 C.ar    
  16 C16            4.1640     3.8030     4.3659 C.3     
  17 F17            5.0957     3.0333     3.6611 F       
  18 F18            4.7298     5.0417     4.6866 F       
  19 F19            3.8029     3.1368     5.5419 F       
  20 C20            2.0656     6.5632     9.4196 C.2     
  21 N21            3.1194     7.3947     9.3533 N.am    
  22 C22            3.6457     7.3820     7.9838 C.3     
  23 C23            2.7741     6.4276     7.2059 C.ar    
  24 C24            2.7750     6.0088     5.8984 C.ar    
  25 C25            1.8167     5.0925     5.4613 C.ar    
  26 C26            0.8614     4.6052     6.3538 C.ar    
  27 C27            0.8606     5.0252     7.6645 C.ar    
  28 C28            1.8191     5.9427     8.1048 C.ar    
  29 O29            1.4119     6.3491    10.4220 O.2     
  30 C30            3.6541     8.1845    10.4654 C.3     
  31 C31            2.7173     9.1969    11.1274 C.3     
  32 C32            3.0931     7.9084    11.8618 C.3     
  33 H33            2.6337     0.6624     0.9604 H       
  34 H34            2.8426     0.6762    -0.8202 H       
  35 H35           -1.5638    -0.6450    -1.4785 H       
  36 H36           -1.3178    -1.4379     0.0960 H       
  37 H37           -2.1670     0.1240     0.0091 H       
  38 H38            2.8188     3.3708    -0.4178 H       
  39 H39            1.1545     3.9724    -0.6083 H       
  40 H40            3.8031     3.1118     1.7821 H       
  41 H41           -0.1899     5.3123     3.6658 H       
  42 H42           -0.1820     4.5633     1.3223 H       
  43 H43            3.5871     8.3806     7.5507 H       
  44 H44            4.6781     7.0325     7.9824 H       
  45 H45            3.5157     6.3872     5.2095 H       
  46 H46            0.1201     3.8967     6.0151 H       
  47 H47            0.1195     4.6463     8.3526 H       
  48 H48            4.7087     8.4493    10.3895 H       
  49 H49            3.1557    10.1276    11.4875 H       
  50 H50            1.7032     9.2754    10.7356 H       
  51 H51            2.3263     7.1392    11.9531 H       
  52 H52            3.7788     7.9914    12.7050 H       
@<TRIPOS>BOND
   1    1    2 am
   2    1    5 am
   3    1    6 2
   4    2    3 am
   5    2    8 1
   6    3    4 1
   7    3    7 2
   8    4    5 1
   9    4   33 1
  10    4   34 1
  11    5    9 1
  12    8   35 1
  13    8   36 1
  14    8   37 1
  15    9   10 1
  16    9   38 1
  17    9   39 1
  18   10   11 ar
  19   10   15 ar
  20   11   12 ar
  21   11   40 1
  22   12   13 ar
  23   12   16 1
  24   13   14 ar
  25   13   25 1
  26   14   15 ar
  27   14   41 1
  28   15   42 1
  29   16   17 1
  30   16   18 1
  31   16   19 1
  32   20   21 am
  33   20   28 1
  34   20   29 2
  35   21   22 1
  36   21   30 1
  37   22   23 1
  38   22   43 1
  39   22   44 1
  40   23   24 ar
  41   23   28 ar
  42   24   25 ar
  43   24   45 1
  44   25   26 ar
  45   26   27 ar
  46   26   46 1
  47   27   28 ar
  48   27   47 1
  49   30   31 1
  50   30   32 1
  51   30   48 1
  52   31   32 1
  53   31   49 1
  54   31   50 1
  55   32   51 1
  56   32   52 1

#	End of record

