#	Name: ASD01840333
#	Creating user name:	WinNT
#	Creation time:	15. 06. 2019 19:37

#	Modifying user name:	WinNT
#	Modification time:	15. 06. 2019 19:37

#	Program:	/corina/corina34_cracker 3.40 0067  02.08.2006

@<TRIPOS>MOLECULE
ASD01840333
  35   39    0    0    0
SMALL
NO_CHARGES


@<TRIPOS>ATOM
   1 C1            -0.0184     1.5028     0.0103 C.3     
   2 C2             0.0021    -0.0041     0.0020 C.ar    
   3 C3             0.0061    -0.7006    -1.1888 C.ar    
   4 Cl4           -0.0124     0.1492    -2.7025 Cl      
   5 C5             0.0255    -2.0867    -1.1634 C.ar    
   6 N6             0.0396    -2.7423    -0.0263 N.ar    
   7 C7             0.0366    -2.1188     1.1570 C.ar    
   8 S8             0.0533    -2.7977     2.7784 S.3     
   9 C9             0.0353    -1.2174     3.5386 C.ar    
  10 C10            0.0370    -0.8536     4.9002 C.ar    
  11 N11            0.0213     0.4330     5.2213 N.ar    
  12 C12            0.0043     1.3633     4.2848 C.ar    
  13 N13            0.0020     1.0696     3.0074 N.ar    
  14 C14            0.0172    -0.2117     2.5867 C.ar    
  15 C15            0.0234    -0.7292     1.2113 C.ar    
  16 N16            0.0545    -1.8257     5.8884 N.3     
  17 C17           -1.3085    -2.3246     6.1644 C.3     
  18 C18           -0.9552    -2.2773     7.6440 C.3     
  19 C19           -2.0052    -2.0307     8.7252 C.3     
  20 O20           -1.8745    -3.4435     8.9971 O.3     
  21 C21           -0.5503    -3.5253     8.4256 C.3     
  22 C22            0.0529    -1.2137     7.2331 C.3     
  23 H23            1.0042     1.8801     0.0026 H       
  24 H24           -0.5455     1.8639    -0.8728 H       
  25 H25           -0.5286     1.8543     0.9071 H       
  26 H26            0.0287    -2.6354    -2.0936 H       
  27 H27           -0.0086     2.4017     4.5813 H       
  28 H28           -2.0941    -1.6239     5.8818 H       
  29 H29           -1.4867    -3.3332     5.7914 H       
  30 H30           -1.6617    -1.3903     9.5376 H       
  31 H31           -2.9820    -1.7436     8.3359 H       
  32 H32           -0.3911    -4.4053     7.8023 H       
  33 H33            0.2525    -3.3567     9.1434 H       
  34 H34            1.0087    -1.2968     7.7504 H       
  35 H35           -0.3509    -0.2014     7.2502 H       
@<TRIPOS>BOND
   1    1    2 1
   2    1   23 1
   3    1   24 1
   4    1   25 1
   5    2   15 ar
   6    2    3 ar
   7    3    4 1
   8    3    5 ar
   9    5    6 ar
  10    5   26 1
  11    6    7 ar
  12    7   15 ar
  13    7    8 1
  14    8    9 1
  15    9   14 ar
  16    9   10 ar
  17   10   11 ar
  18   10   16 1
  19   11   12 ar
  20   12   13 ar
  21   12   27 1
  22   13   14 ar
  23   14   15 1
  24   16   22 1
  25   16   17 1
  26   17   18 1
  27   17   28 1
  28   17   29 1
  29   18   21 1
  30   18   19 1
  31   18   22 1
  32   19   20 1
  33   19   30 1
  34   19   31 1
  35   20   21 1
  36   21   32 1
  37   21   33 1
  38   22   34 1
  39   22   35 1

#	End of record

