#	Name: ASD02039067
#	Creating user name:	WinNT
#	Creation time:	15. 06. 2019 20:17

#	Modifying user name:	WinNT
#	Modification time:	15. 06. 2019 20:17

#	Program:	/corina/corina34_cracker 3.40 0067  02.08.2006

@<TRIPOS>MOLECULE
ASD02039067
  43   46    0    0    0
SMALL
NO_CHARGES


@<TRIPOS>ATOM
   1 N1             0.0024     1.2784    -0.2049 N.2     
   2 N2             0.0315    -0.0043    -0.3003 N.2     
   3 C3             1.2279     1.7343    -0.1141 C.2     
   4 O4             2.0533     0.6718    -0.1561 O.3     
   5 C5             1.2656    -0.4148    -0.2743 C.2     
   6 N6             1.6034     3.0607     0.0028 N.pl3   
   7 C7             0.6404     4.0704    -0.0881 C.ar    
   8 C8             1.7298    -1.8460    -0.3598 C.3     
   9 O9             1.9393    -2.1978    -1.7289 O.3     
  10 C10            2.3628    -3.4646    -1.9828 C.ar    
  11 C11            2.5838    -3.8670    -3.2849 C.ar    
  12 C12            2.5772    -4.3480    -0.9278 C.ar    
  13 C13            3.0071    -5.6349    -1.1661 C.ar    
  14 C14            3.2306    -6.0623    -2.4705 C.ar    
  15 C15            3.0198    -5.1711    -3.5396 C.ar    
  16 C16            0.8210     5.2661     0.5934 C.ar    
  17 C17           -0.4956     3.8802    -0.8652 C.ar    
  18 C18           -1.4470     4.8776    -0.9551 C.ar    
  19 C19           -1.2717     6.0674    -0.2723 C.ar    
  20 C20           -0.1355     6.2648     0.5012 C.ar    
  21 N21            3.6610    -7.3478    -2.7301 N.am    
  22 C22            3.8773    -7.7636    -3.9901 C.2     
  23 C23            3.6762    -6.9106    -5.0964 C.2     
  24 C24            3.2585    -5.6345    -4.9078 C.2     
  25 O25            4.2571    -8.9058    -4.1819 O.2     
  26 Cl26          -2.4696     7.3184    -0.3885 Cl      
  27 O27            0.0356     7.4344     1.1722 O.3     
  28 C28            1.2279     7.5686     1.9483 C.3     
  29 F29            1.2645     6.5666     2.9240 F       
  30 F30            2.3439     7.4475     1.1135 F       
  31 H31            2.5346     3.2902     0.1478 H       
  32 H32            2.6635    -1.9586     0.1912 H       
  33 H33            0.9722    -2.5001     0.0716 H       
  34 H34            2.4206    -3.1792    -4.1014 H       
  35 H35            2.4050    -4.0210     0.0870 H       
  36 H36            3.1708    -6.3115    -0.3404 H       
  37 H37            1.7051     5.4178     1.1948 H       
  38 H38           -0.6346     2.9521    -1.3997 H       
  39 H39           -2.3292     4.7281    -1.5599 H       
  40 H40            3.8097    -7.9601    -1.9926 H       
  41 H41            3.8593    -7.2746    -6.0966 H       
  42 H42            3.1019    -4.9753    -5.7488 H       
  43 H43            1.2394     8.5460     2.4307 H       
@<TRIPOS>BOND
   1    1    2 1
   2    1    3 2
   3    2    5 2
   4    3    4 1
   5    3    6 1
   6    4    5 1
   7    5    8 1
   8    6    7 1
   9    6   31 1
  10    7   16 ar
  11    7   17 ar
  12    8    9 1
  13    8   32 1
  14    8   33 1
  15    9   10 1
  16   10   11 ar
  17   10   12 ar
  18   11   15 ar
  19   11   34 1
  20   12   13 ar
  21   12   35 1
  22   13   14 ar
  23   13   36 1
  24   14   15 ar
  25   14   21 1
  26   15   24 1
  27   16   20 ar
  28   16   37 1
  29   17   18 ar
  30   17   38 1
  31   18   19 ar
  32   18   39 1
  33   19   20 ar
  34   19   26 1
  35   20   27 1
  36   21   22 am
  37   21   40 1
  38   22   23 1
  39   22   25 2
  40   23   24 2
  41   23   41 1
  42   24   42 1
  43   27   28 1
  44   28   29 1
  45   28   30 1
  46   28   43 1

#	End of record

