#	Name: ASD03430683
#	Creating user name:	WinNT
#	Creation time:	15. 06. 2019 20:41

#	Modifying user name:	WinNT
#	Modification time:	15. 06. 2019 20:41

#	Program:	/corina/corina34_cracker 3.40 0067  02.08.2006

@<TRIPOS>MOLECULE
ASD03430683
  58   64    0    0    0
SMALL
NO_CHARGES


@<TRIPOS>ATOM
   1 C1             3.9611    -1.2792    -3.1742 C.ar    
   2 C2             3.1148    -2.1553    -2.5120 C.ar    
   3 C3             3.5124    -3.4529    -2.2676 C.ar    
   4 C4             4.7678    -3.8972    -2.6714 C.ar    
   5 C5             5.6129    -3.0165    -3.3390 C.ar    
   6 C6             5.2146    -1.7141    -3.5890 C.ar    
   7 O7             4.9722    -5.1963    -2.3097 O.3     
   8 C8             2.8339    -4.6242    -1.6095 C.3     
   9 C9             3.7028    -5.8173    -2.0309 C.3     
  10 C10            1.4131    -4.5601     0.2066 C.ar    
  11 C11            2.7653    -4.4804    -0.1181 C.ar    
  12 C12            1.4104    -4.7849    -2.0599 C.2     
  13 N13            0.6485    -4.7387    -0.9488 N.am    
  14 O14            1.0221    -4.9277    -3.2000 O.2     
  15 C15            3.7124    -4.3027     0.8650 C.ar    
  16 C16            3.3258    -4.2020     2.1900 C.ar    
  17 C17            1.9864    -4.2809     2.5239 C.ar    
  18 C18            1.0334    -4.4592     1.5424 C.ar    
  19 C19           -0.8113    -4.8621    -0.9525 C.3     
  20 C20           -1.4102    -3.7179    -1.7292 C.ar    
  21 C21           -1.2035    -6.1666    -1.5972 C.ar    
  22 O22            6.0630    -0.8699    -4.2383 O.3     
  23 C23            5.4873     0.3137    -4.8014 C.3     
  24 O24            3.5496    -0.0037    -3.4147 O.3     
  25 C25            4.5663     0.9476    -3.7500 C.3     
  26 C26           -2.6793    -3.8352    -2.2645 C.ar    
  27 C27           -3.2286    -2.7857    -2.9769 C.ar    
  28 C28           -2.5090    -1.6187    -3.1538 C.ar    
  29 C29           -1.2403    -1.5011    -2.6178 C.ar    
  30 C30           -0.6926    -2.5490    -1.9016 C.ar    
  31 C31           -1.6092    -7.2305    -0.8133 C.ar    
  32 C32           -1.9689    -8.4271    -1.4045 C.ar    
  33 C33           -1.9233    -8.5597    -2.7798 C.ar    
  34 C34           -1.5184    -7.4955    -3.5637 C.ar    
  35 C35           -1.1629    -6.2975    -2.9727 C.ar    
  36 H36            2.1412    -1.8202    -2.1862 H       
  37 H37            6.5869    -3.3509    -3.6643 H       
  38 H38            3.2998    -6.2928    -2.9251 H       
  39 H39            3.7941    -6.5363    -1.2167 H       
  40 H40            4.7582    -4.2422     0.6020 H       
  41 H41            4.0686    -4.0619     2.9614 H       
  42 H42            1.6849    -4.2029     3.5580 H       
  43 H43           -0.0109    -4.5202     1.8111 H       
  44 H44           -1.1805    -4.8380     0.0727 H       
  45 H45            6.2774     1.0153    -5.0689 H       
  46 H46            4.9090     0.0549    -5.6884 H       
  47 H47            5.1415     1.2004    -2.8593 H       
  48 H48            4.1073     1.8474    -4.1596 H       
  49 H49           -3.2415    -4.7469    -2.1263 H       
  50 H50           -4.2199    -2.8776    -3.3957 H       
  51 H51           -2.9379    -0.7990    -3.7111 H       
  52 H52           -0.6779    -0.5895    -2.7563 H       
  53 H53            0.2986    -2.4571    -1.4828 H       
  54 H54           -1.6448    -7.1268     0.2612 H       
  55 H55           -2.2852    -9.2584    -0.7921 H       
  56 H56           -2.2037    -9.4948    -3.2417 H       
  57 H57           -1.4825    -7.5993    -4.6381 H       
  58 H58           -0.8466    -5.4662    -3.5852 H       
@<TRIPOS>BOND
   1    1    2 ar
   2    1    6 ar
   3    1   24 1
   4    2    3 ar
   5    2   36 1
   6    3    4 ar
   7    3    8 1
   8    4    5 ar
   9    4    7 1
  10    5    6 ar
  11    5   37 1
  12    6   22 1
  13    7    9 1
  14    8    9 1
  15    8   11 1
  16    8   12 1
  17    9   38 1
  18    9   39 1
  19   10   11 ar
  20   10   13 1
  21   10   18 ar
  22   11   15 ar
  23   12   13 am
  24   12   14 2
  25   13   19 1
  26   15   16 ar
  27   15   40 1
  28   16   17 ar
  29   16   41 1
  30   17   18 ar
  31   17   42 1
  32   18   43 1
  33   19   20 1
  34   19   21 1
  35   19   44 1
  36   20   26 ar
  37   20   30 ar
  38   21   31 ar
  39   21   35 ar
  40   22   23 1
  41   23   25 1
  42   23   45 1
  43   23   46 1
  44   24   25 1
  45   25   47 1
  46   25   48 1
  47   26   27 ar
  48   26   49 1
  49   27   28 ar
  50   27   50 1
  51   28   29 ar
  52   28   51 1
  53   29   30 ar
  54   29   52 1
  55   30   53 1
  56   31   32 ar
  57   31   54 1
  58   32   33 ar
  59   32   55 1
  60   33   34 ar
  61   33   56 1
  62   34   35 ar
  63   34   57 1
  64   35   58 1

#	End of record

