#	Name: ASD01230764
#	Creating user name:	WinNT
#	Creation time:	15. 06. 2019 19:15

#	Modifying user name:	WinNT
#	Modification time:	15. 06. 2019 19:15

#	Program:	/corina/corina34_cracker 3.40 0067  02.08.2006

@<TRIPOS>MOLECULE
ASD01230764
  30   32    0    0    0
SMALL
NO_CHARGES


@<TRIPOS>ATOM
   1 C1            -0.0166     1.3736     0.0096 C.2     
   2 C2             0.0021    -0.0041     0.0020 C.2     
   3 C3            -1.2146    -0.7002     0.0078 C.2     
   4 C4            -2.3849    -0.0394     0.0095 C.2     
   5 N5            -2.4623     1.3312    -0.0002 N.pl3   
   6 C6            -1.3175     2.0758     0.0320 C.2     
   7 C7            -3.8098     1.9045    -0.0514 C.3     
   8 C8            -3.8787     3.1902     0.7777 C.3     
   9 S9            -2.6221     4.3262     0.1104 S.o2    
  10 N10           -1.2620     3.3847     0.0819 N.am    
  11 C11            1.2497     2.1409     0.0016 C.ar    
  12 C12            1.9991     2.2428    -1.1705 C.ar    
  13 O13           -2.8861     4.6253    -1.2535 O.2     
  14 O14           -2.3219     5.3523     1.0465 O.2     
  15 C15            1.6955     2.7702     1.1665 C.ar    
  16 C16            2.8779     3.4851     1.1523 C.ar    
  17 C17            3.6195     3.5776    -0.0140 C.ar    
  18 C18            3.1779     2.9591    -1.1731 C.ar    
  19 F19            4.7749     4.2777    -0.0230 F       
  20 F20            0.9721     2.6804     2.3039 F       
  21 H21            0.9399    -0.5395    -0.0085 H       
  22 H22           -1.2116    -1.7802     0.0105 H       
  23 H23           -3.3019    -0.6099     0.0185 H       
  24 H24           -4.0655     2.1300    -1.0866 H       
  25 H25           -4.5231     1.1821     0.3454 H       
  26 H26           -4.8687     3.6374     0.6882 H       
  27 H27           -3.6626     2.9701     1.8232 H       
  28 H28            1.6570     1.7613    -2.0746 H       
  29 H29            3.2241     3.9727     2.0516 H       
  30 H30            3.7604     3.0347    -2.0794 H       
@<TRIPOS>BOND
   1    1    2 2
   2    1   11 1
   3    1    6 1
   4    2    3 1
   5    2   21 1
   6    3    4 2
   7    3   22 1
   8    4    5 1
   9    4   23 1
  10    5    6 1
  11    5    7 1
  12    6   10 2
  13    7    8 1
  14    7   24 1
  15    7   25 1
  16    8    9 1
  17    8   26 1
  18    8   27 1
  19    9   10 am
  20    9   13 2
  21    9   14 2
  22   11   12 ar
  23   11   15 ar
  24   12   18 ar
  25   12   28 1
  26   15   16 ar
  27   15   20 1
  28   16   17 ar
  29   16   29 1
  30   17   18 ar
  31   17   19 1
  32   18   30 1

#	End of record

