#	Name: ASD02401018
#	Creating user name:	WinNT
#	Creation time:	15. 06. 2019 20:20

#	Modifying user name:	WinNT
#	Modification time:	15. 06. 2019 20:20

#	Program:	/corina/corina34_cracker 3.40 0067  02.08.2006

@<TRIPOS>MOLECULE
ASD02401018
  26   27    0    0    0
SMALL
NO_CHARGES


@<TRIPOS>ATOM
   1 C1             7.0085     1.3555    -1.5120 C.ar    
   2 C2             7.1407     0.0206    -1.1723 C.ar    
   3 C3             6.1430    -0.6208    -0.4594 C.ar    
   4 C4             5.0090     0.0678    -0.0820 C.ar    
   5 C5             4.8692     1.4154    -0.4211 C.ar    
   6 C6             5.8798     2.0563    -1.1411 C.ar    
   7 C7             3.6568     2.1596    -0.0207 C.2     
   8 C8             3.6952     3.6302     0.0840 C.ar    
   9 C9             2.5133     4.3706    -0.0114 C.ar    
  10 C10            2.5511     5.7443     0.0871 C.ar    
  11 C11            3.7613     6.3966     0.2812 C.ar    
  12 C12            4.9447     5.6642     0.3773 C.ar    
  13 C13            4.9138     4.2872     0.2848 C.ar    
  14 O14            6.1283     6.3065     0.5674 O.3     
  15 O15            3.7931     7.7506     0.3771 O.3     
  16 O16            2.6277     1.5595     0.2224 O.2     
  17 H17            7.7928     1.8510    -2.0650 H       
  18 H18            8.0266    -0.5234    -1.4652 H       
  19 H19            6.2523    -1.6630    -0.1982 H       
  20 H20            4.2310    -0.4340     0.4740 H       
  21 H21            5.7782     3.0983    -1.4063 H       
  22 H22            1.5706     3.8657    -0.1628 H       
  23 H23            1.6373     6.3151     0.0128 H       
  24 H24            5.8292     3.7190     0.3591 H       
  25 H25            6.3625     6.4325     1.4971 H       
  26 H26            3.6941     8.0833     1.2797 H       
@<TRIPOS>BOND
   1    1    2 ar
   2    1    6 ar
   3    1   17 1
   4    2    3 ar
   5    2   18 1
   6    3    4 ar
   7    3   19 1
   8    4    5 ar
   9    4   20 1
  10    5    6 ar
  11    5    7 1
  12    6   21 1
  13    7    8 1
  14    7   16 2
  15    8    9 ar
  16    8   13 ar
  17    9   10 ar
  18    9   22 1
  19   10   11 ar
  20   10   23 1
  21   11   12 ar
  22   11   15 1
  23   12   13 ar
  24   12   14 1
  25   13   24 1
  26   14   25 1
  27   15   26 1

#	End of record

