#	Name: ASD01948291
#	Creating user name:	WinNT
#	Creation time:	15. 06. 2019 20:14

#	Modifying user name:	WinNT
#	Modification time:	15. 06. 2019 20:14

#	Program:	/corina/corina34_cracker 3.40 0067  02.08.2006

@<TRIPOS>MOLECULE
ASD01948291
  53   55    0    0    0
SMALL
NO_CHARGES


@<TRIPOS>ATOM
   1 C1             0.8980     5.5117    -0.3189 C.ar    
   2 C2             1.3493     6.4190    -1.2613 C.ar    
   3 C3             2.5522     6.2067    -1.9096 C.ar    
   4 C4             3.3084     5.0874    -1.6188 C.ar    
   5 C5             2.8602     4.1746    -0.6739 C.ar    
   6 C6             1.6497     4.3899    -0.0227 C.ar    
   7 N7             4.7139     1.9993    -2.2109 N.am    
   8 C8             4.7736     2.7769    -1.0924 C.2     
   9 N9             3.6235     3.0401    -0.3778 N.pl3   
  10 C10            5.8232     1.7295    -2.9235 C.2     
  11 C11            7.0611     2.2437    -2.5278 C.2     
  12 C12            7.1424     3.0328    -1.3977 C.2     
  13 C13            5.9814     3.3028    -0.6702 C.2     
  14 N14            6.0396     4.1048     0.4847 N.am    
  15 I15            0.2072     8.1177    -1.7073 I       
  16 O16            5.7478     1.0301    -3.9227 O.2     
  17 F17            1.2097     3.5044     0.8980 F       
  18 C18            3.4268     1.4458    -2.6391 C.3     
  19 S19            7.4861     4.7431     0.9774 S.o2    
  20 O20            8.1719     5.0325    -0.2331 O.2     
  21 O21            7.1228     5.7794     1.8792 O.2     
  22 C22            8.3017     3.3859     1.8624 C.3     
  23 C23            8.3000     1.9378    -3.3293 C.3     
  24 C24            7.6589     2.9046     3.1647 C.3     
  25 C25            7.5807     2.0372     1.9067 C.3     
  26 C26            9.8294     3.3684     1.7801 C.3     
  27 C27           10.2595     3.1480     0.3284 C.3     
  28 O28           11.6787     2.9918     0.2705 O.3     
  29 O29            9.4277     2.5737    -2.7244 O.3     
  30 C30           10.6606     2.3459    -3.4102 C.3     
  31 H31           -0.0399     5.6823     0.1887 H       
  32 H32            2.9011     6.9168    -2.6448 H       
  33 H33            4.2472     4.9226    -2.1264 H       
  34 H34            3.3440     2.4387     0.3301 H       
  35 H35            8.0925     3.4365    -1.0802 H       
  36 H36            5.2325     4.2838     0.9921 H       
  37 H37            2.8995     2.1806    -3.2474 H       
  38 H38            3.5967     0.5430    -3.2259 H       
  39 H39            2.8267     1.2017    -1.7625 H       
  40 H40            8.4603     0.8599    -3.3533 H       
  41 H41            8.1757     2.3094    -4.3464 H       
  42 H42            8.3243     2.5750     3.9626 H       
  43 H43            6.7458     3.4034     3.4896 H       
  44 H44            6.6162     1.9655     1.4040 H       
  45 H45            8.1946     1.1371     1.8770 H       
  46 H46           10.2234     4.3207     2.1352 H       
  47 H47           10.2175     2.5606     2.4006 H       
  48 H48            9.7789     2.2503    -0.0606 H       
  49 H49            9.9638     4.0079    -0.2727 H       
  50 H50           12.0225     2.8480    -0.6218 H       
  51 H51           10.5852     2.7259    -4.4290 H       
  52 H52           11.4670     2.8615    -2.8888 H       
  53 H53           10.8698     1.2764    -3.4358 H       
@<TRIPOS>BOND
   1    1    2 ar
   2    1    6 ar
   3    1   31 1
   4    2    3 ar
   5    2   15 1
   6    3    4 ar
   7    3   32 1
   8    4    5 ar
   9    4   33 1
  10    5    6 ar
  11    5    9 1
  12    6   17 1
  13    7    8 1
  14    7   10 am
  15    7   18 1
  16    8    9 1
  17    8   13 2
  18    9   34 1
  19   10   11 1
  20   10   16 2
  21   11   12 2
  22   11   23 1
  23   12   13 1
  24   12   35 1
  25   13   14 1
  26   14   19 am
  27   14   36 1
  28   18   37 1
  29   18   38 1
  30   18   39 1
  31   19   20 2
  32   19   21 2
  33   19   22 1
  34   22   24 1
  35   22   26 1
  36   22   25 1
  37   23   29 1
  38   23   40 1
  39   23   41 1
  40   24   25 1
  41   24   42 1
  42   24   43 1
  43   25   44 1
  44   25   45 1
  45   26   27 1
  46   26   46 1
  47   26   47 1
  48   27   28 1
  49   27   48 1
  50   27   49 1
  51   28   50 1
  52   29   30 1
  53   30   51 1
  54   30   52 1
  55   30   53 1

#	End of record

