#	Name: ASD06710022
#	Creating user name:	WinNT
#	Creation time:	15. 06. 2019 21:08

#	Modifying user name:	WinNT
#	Modification time:	15. 06. 2019 21:08

#	Program:	/corina/corina34_cracker 3.40 0067  02.08.2006

@<TRIPOS>MOLECULE
ASD06710022
  47   48    0    0    0
SMALL
NO_CHARGES


@<TRIPOS>ATOM
   1 C1            -0.0167     1.3831     0.0096 C.ar    
   2 C2             0.0021    -0.0041     0.0020 C.ar    
   3 C3             1.2141    -0.6790    -0.0132 C.ar    
   4 C4             2.3988     0.0314    -0.0207 C.ar    
   5 C5             2.3774     1.4139    -0.0130 C.ar    
   6 C6             1.1708     2.0889     0.0021 C.ar    
   7 C7             3.6672     3.6016    -2.0847 C.ar    
   8 C8             4.0897     2.4515    -1.4441 C.ar    
   9 C9             3.6714     2.1863    -0.0208 C.3     
  10 C10            4.0493     3.8469    -3.3894 C.ar    
  11 C11            4.8575     2.9381    -4.0568 C.ar    
  12 C12            5.2797     1.7847    -3.4119 C.ar    
  13 C13            4.8949     1.5439    -2.1072 C.ar    
  14 O14           -1.1648    -0.7006     0.0099 O.3     
  15 O15            5.2344     3.1770    -5.3405 O.3     
  16 C16           -1.0693    -2.1264     0.0013 C.3     
  17 C17           -2.4744    -2.7318     0.0120 C.3     
  18 C18           -2.3756    -4.2526    -0.1229 C.3     
  19 O19           -3.1250    -2.4039     1.2413 O.3     
  20 C20            6.0670     2.1979    -5.9651 C.3     
  21 C21            6.3848     2.6366    -7.3960 C.3     
  22 O22            7.1659     3.8328    -7.3651 O.3     
  23 Cl23          -4.0315    -4.9529    -0.2580 Cl      
  24 C24            7.1712     1.5323    -8.1052 C.3     
  25 Cl25           7.4185     1.9852    -9.8328 Cl      
  26 H26           -0.9590     1.9108     0.0170 H       
  27 H27            1.2314    -1.7588    -0.0188 H       
  28 H28            3.3426    -0.4935    -0.0321 H       
  29 H29            1.1567     3.1688     0.0077 H       
  30 H30            3.0343     4.3066    -1.5662 H       
  31 H31            3.5319     3.1340     0.4995 H       
  32 H32            4.4442     1.6057     0.4829 H       
  33 H33            3.7187     4.7453    -3.8895 H       
  34 H34            5.9087     1.0755    -3.9295 H       
  35 H35            5.2236     0.6463    -1.6046 H       
  36 H36           -0.5412    -2.4498    -0.8957 H       
  37 H37           -0.5235    -2.4593     0.8841 H       
  38 H38           -3.0496    -2.3297    -0.8220 H       
  39 H39           -1.8018    -4.5017    -1.0156 H       
  40 H40           -1.8778    -4.6637     0.7554 H       
  41 H41           -2.6674    -2.7309     2.0279 H       
  42 H42            6.9945     2.0969    -5.4015 H       
  43 H43            5.5482     1.2395    -5.9857 H       
  44 H44            5.4553     2.8234    -7.9337 H       
  45 H45            8.0092     3.7401    -6.9011 H       
  46 H46            8.1393     1.4068    -7.6203 H       
  47 H47            6.6138     0.5971    -8.0510 H       
@<TRIPOS>BOND
   1    1    2 ar
   2    1    6 ar
   3    1   26 1
   4    2    3 ar
   5    2   14 1
   6    3    4 ar
   7    3   27 1
   8    4    5 ar
   9    4   28 1
  10    5    6 ar
  11    5    9 1
  12    6   29 1
  13    7    8 ar
  14    7   10 ar
  15    7   30 1
  16    8    9 1
  17    8   13 ar
  18    9   31 1
  19    9   32 1
  20   10   11 ar
  21   10   33 1
  22   11   12 ar
  23   11   15 1
  24   12   13 ar
  25   12   34 1
  26   13   35 1
  27   14   16 1
  28   15   20 1
  29   16   17 1
  30   16   36 1
  31   16   37 1
  32   17   18 1
  33   17   19 1
  34   17   38 1
  35   18   23 1
  36   18   39 1
  37   18   40 1
  38   19   41 1
  39   20   21 1
  40   20   42 1
  41   20   43 1
  42   21   24 1
  43   21   22 1
  44   21   44 1
  45   22   45 1
  46   24   25 1
  47   24   46 1
  48   24   47 1

#	End of record

