#	Name: ASD01940097
#	Creating user name:	WinNT
#	Creation time:	15. 06. 2019 20:11

#	Modifying user name:	WinNT
#	Modification time:	15. 06. 2019 20:11

#	Program:	/corina/corina34_cracker 3.40 0067  02.08.2006

@<TRIPOS>MOLECULE
ASD01940097
  65   69    0    0    0
SMALL
NO_CHARGES


@<TRIPOS>ATOM
   1 C1             1.2985     1.8103    -1.1303 C.ar    
   2 C2             1.2993     0.4318    -1.3146 C.ar    
   3 C3             1.9237    -0.1164    -2.4268 C.ar    
   4 C4             2.5421     0.7077    -3.3468 C.ar    
   5 C5             2.5403     2.0787    -3.1618 C.ar    
   6 C6             1.9146     2.6300    -2.0582 C.ar    
   7 I7             3.4806     3.3232    -4.5604 I       
   8 F8             0.6922     2.3481    -0.0494 F       
   9 N9             0.6722    -0.4010    -0.3805 N.pl3   
  10 C10            0.5913    -1.7468    -0.6101 C.2     
  11 N11           -0.5144    -2.2744    -1.2059 N.am    
  12 C12            1.6402    -2.5832    -0.2415 C.2     
  13 C13            1.5436    -3.9793    -0.4855 C.2     
  14 C14            0.4055    -4.4763    -1.0857 C.2     
  15 C15           -0.6192    -3.5936    -1.4429 C.2     
  16 C16           -1.6121    -1.3860    -1.5960 C.3     
  17 O17           -1.6280    -4.0293    -1.9742 O.2     
  18 C18            0.2702    -5.9521    -1.3590 C.3     
  19 C19            2.8572    -2.0754     0.3964 C.2     
  20 N20            3.8256    -2.9600     0.7202 N.am    
  21 C21            3.6890    -4.2712     0.4697 C.2     
  22 N22            2.5953    -4.7938    -0.1129 N.am    
  23 O23            2.9925    -0.8884     0.6281 O.2     
  24 O24            4.5938    -5.0197     0.7834 O.2     
  25 C25            5.0525    -2.4769     1.3586 C.3     
  26 C26            6.3636    -2.6466     0.5885 C.3     
  27 C27            5.7387    -1.2581     0.7386 C.3     
  28 C28            2.5219    -6.1735    -0.3428 C.ar    
  29 C29            3.2363    -6.7432    -1.3893 C.ar    
  30 C30            1.7402    -6.9734     0.4778 C.ar    
  31 C31            1.6704    -8.3400     0.2472 C.ar    
  32 C32            2.3829    -8.9027    -0.8041 C.ar    
  33 C33            3.1644    -8.1038    -1.6167 C.ar    
  34 N34            0.8834    -9.1504     1.0729 N.am    
  35 C35            0.2512   -10.2239     0.5588 C.2     
  36 C36           -0.6795   -11.0355     1.4227 C.3     
  37 O37            0.4312   -10.5368    -0.5991 O.2     
  38 C38           -1.2615   -12.1884     0.6023 C.3     
  39 N39           -2.1687   -12.9795     1.4443 N.3     
  40 H40            1.9262    -1.1865    -2.5724 H       
  41 H41            3.0281     0.2811    -4.2118 H       
  42 H42            1.9145     3.7007    -1.9167 H       
  43 H43            0.2951    -0.0237     0.4296 H       
  44 H44           -1.4071    -0.9659    -2.5806 H       
  45 H45           -2.5431    -1.9517    -1.6290 H       
  46 H46           -1.7027    -0.5793    -0.8685 H       
  47 H47           -0.0938    -6.4556    -0.4634 H       
  48 H48           -0.4354    -6.1072    -2.1752 H       
  49 H49            1.2419    -6.3609    -1.6361 H       
  50 H50            5.0892    -2.5780     2.4433 H       
  51 H51            7.2629    -2.8589     1.1665 H       
  52 H52            6.3133    -3.1177    -0.3932 H       
  53 H53            5.2774    -0.8157    -0.1443 H       
  54 H54            6.2270    -0.5570     1.4154 H       
  55 H55            3.8482    -6.1214    -2.0260 H       
  56 H56            1.1875    -6.5336     1.2948 H       
  57 H57            2.3290    -9.9662    -0.9842 H       
  58 H58            3.7172    -8.5435    -2.4337 H       
  59 H59            0.7929    -8.9395     2.0154 H       
  60 H60           -0.1284   -11.4368     2.2732 H       
  61 H61           -1.4891   -10.3999     1.7815 H       
  62 H62           -1.8126   -11.7871    -0.2483 H       
  63 H63           -0.4519   -12.8239     0.2435 H       
  64 H64           -2.5664   -13.7477     0.9249 H       
  65 H65           -1.6973   -13.3091     2.2733 H       
@<TRIPOS>BOND
   1    1    2 ar
   2    1    8 1
   3    1    6 ar
   4    2    3 ar
   5    2    9 1
   6    3    4 ar
   7    3   40 1
   8    4    5 ar
   9    4   41 1
  10    5    6 ar
  11    5    7 1
  12    6   42 1
  13    9   10 1
  14    9   43 1
  15   10   11 1
  16   10   12 2
  17   11   16 1
  18   11   15 am
  19   12   13 1
  20   12   19 1
  21   13   14 2
  22   13   22 1
  23   14   15 1
  24   14   18 1
  25   15   17 2
  26   16   44 1
  27   16   45 1
  28   16   46 1
  29   18   47 1
  30   18   48 1
  31   18   49 1
  32   19   20 am
  33   19   23 2
  34   20   21 am
  35   20   25 1
  36   21   22 am
  37   21   24 2
  38   22   28 1
  39   25   26 1
  40   25   27 1
  41   25   50 1
  42   26   27 1
  43   26   51 1
  44   26   52 1
  45   27   53 1
  46   27   54 1
  47   28   29 ar
  48   28   30 ar
  49   29   33 ar
  50   29   55 1
  51   30   31 ar
  52   30   56 1
  53   31   32 ar
  54   31   34 1
  55   32   33 ar
  56   32   57 1
  57   33   58 1
  58   34   35 am
  59   34   59 1
  60   35   36 1
  61   35   37 2
  62   36   38 1
  63   36   60 1
  64   36   61 1
  65   38   39 1
  66   38   62 1
  67   38   63 1
  68   39   64 1
  69   39   65 1

#	End of record

