#	Name: ASD05580006
#	Creating user name:	WinNT
#	Creation time:	15. 06. 2019 21:01

#	Modifying user name:	WinNT
#	Modification time:	15. 06. 2019 21:01

#	Program:	/corina/corina34_cracker 3.40 0067  02.08.2006

@<TRIPOS>MOLECULE
ASD05580006
  38   39    0    0    0
SMALL
NO_CHARGES


@<TRIPOS>ATOM
   1 C1            -0.0167     1.3798     0.0096 C.ar    
   2 C2             0.0021    -0.0041     0.0020 C.ar    
   3 C3             1.2076    -0.6800    -0.0126 C.ar    
   4 C4             2.4010     0.0320    -0.0202 C.ar    
   5 C5             2.3774     1.4222    -0.0130 C.ar    
   6 C6             1.1696     2.0908     0.0021 C.ar    
   7 Cl7           -1.4898    -0.8917     0.0115 Cl      
   8 N8             3.6195    -0.6463    -0.0345 N.pl3   
   9 N9             4.7264     0.0161    -0.0415 N.2     
  10 C10            5.8788    -0.6254    -0.0551 C.2     
  11 C11            5.9011    -2.0572    -0.0620 C.1     
  12 N12            5.9188    -3.1931    -0.0675 N.1     
  13 C13            7.1386     0.1285    -0.0630 C.2     
  14 O14            8.2012    -0.4631    -0.0755 O.2     
  15 C15            7.1154     1.6110    -0.0558 C.2     
  16 N16            6.0560     2.3822    -0.0421 N.2     
  17 O17            6.3614     3.5520    -0.0388 O.3     
  18 C18            7.6909     3.7208    -0.0501 C.2     
  19 C19            8.2394     2.4841    -0.0562 C.2     
  20 C20            8.4313     5.0334    -0.0505 C.3     
  21 C21            9.2981     5.1296    -1.3076 C.3     
  22 C22            7.4255     6.1862    -0.0350 C.3     
  23 C23            9.3219     5.1169     1.1908 C.3     
  24 H24           -0.9599     1.9058     0.0169 H       
  25 H25            1.2221    -1.7598    -0.0179 H       
  26 H26            3.3031     1.9785    -0.0184 H       
  27 H27            1.1512     3.1707     0.0074 H       
  28 H28            3.6347    -1.6162    -0.0392 H       
  29 H29            9.2867     2.2207    -0.0656 H       
  30 H30            8.6636     5.0701    -2.1919 H       
  31 H31            9.8336     6.0790    -1.3078 H       
  32 H32           10.0147     4.3083    -1.3186 H       
  33 H33            6.8080     6.1177     0.8605 H       
  34 H34            7.9610     7.1356    -0.0353 H       
  35 H35            6.7910     6.1267    -0.9193 H       
  36 H36           10.0385     4.2956     1.1798 H       
  37 H37            9.8574     6.0663     1.1905 H       
  38 H38            8.7044     5.0483     2.0863 H       
@<TRIPOS>BOND
   1    1    2 ar
   2    1    6 ar
   3    1   24 1
   4    2    3 ar
   5    2    7 1
   6    3    4 ar
   7    3   25 1
   8    4    5 ar
   9    4    8 1
  10    5    6 ar
  11    5   26 1
  12    6   27 1
  13    8    9 1
  14    8   28 1
  15    9   10 2
  16   10   11 1
  17   10   13 1
  18   11   12 3
  19   13   14 2
  20   13   15 1
  21   15   16 2
  22   15   19 1
  23   16   17 1
  24   17   18 1
  25   18   19 2
  26   18   20 1
  27   19   29 1
  28   20   21 1
  29   20   22 1
  30   20   23 1
  31   21   30 1
  32   21   31 1
  33   21   32 1
  34   22   33 1
  35   22   34 1
  36   22   35 1
  37   23   36 1
  38   23   37 1
  39   23   38 1

#	End of record

