#	Name: ASD07300489
#	Creating user name:	WinNT
#	Creation time:	15. 06. 2019 21:09

#	Modifying user name:	WinNT
#	Modification time:	15. 06. 2019 21:09

#	Program:	/corina/corina34_cracker 3.40 0067  02.08.2006

@<TRIPOS>MOLECULE
ASD07300489
  68   72    0    0    0
SMALL
NO_CHARGES


@<TRIPOS>ATOM
   1 C1            -1.1881     1.3623    -2.0836 C.ar    
   2 C2            -0.7909     0.0337    -1.9785 C.ar    
   3 C3            -0.6521    -0.7417    -3.1082 C.ar    
   4 C4            -0.9187    -0.1606    -4.3427 C.ar    
   5 C5            -1.3096     1.1631    -4.3863 C.ar    
   6 N6            -1.4328     1.8762    -3.2857 N.ar    
   7 N7            -1.2531     1.9432    -0.8200 N.am    
   8 C8            -0.5955    -0.2395    -0.5064 C.3     
   9 C9            -0.9205     1.0826     0.1566 C.2     
  10 O10           -0.8909     1.3187     1.3458 O.2     
  11 C11           -1.6235     3.2762    -0.5923 C.ar    
  12 C12           -1.9526     4.0980    -1.6620 C.ar    
  13 C13           -2.3177     5.4104    -1.4372 C.ar    
  14 C14           -2.3559     5.9081    -0.1426 C.ar    
  15 C15           -2.0267     5.0875     0.9267 C.ar    
  16 C16           -1.6670     3.7733     0.7034 C.ar    
  17 O17           -2.7155     7.2006     0.0782 O.3     
  18 C18           -4.0278     7.5179    -0.0060 C.2     
  19 N19           -4.9972     6.6599    -0.1911 N.2     
  20 C20           -6.1868     7.3158    -0.2260 C.ar    
  21 C21           -5.9100     8.6816    -0.0472 C.ar    
  22 N22           -4.5364     8.7797     0.0953 N.pl3   
  23 C23           -7.5092     6.8984    -0.3931 C.ar    
  24 C24           -8.5261     7.8269    -0.3810 C.ar    
  25 C25           -8.2474     9.1739    -0.2041 C.ar    
  26 C26           -6.9464     9.6025    -0.0380 C.ar    
  27 C27           -3.7712    10.0100     0.3117 C.3     
  28 O28           -3.3986    10.5674    -0.9502 O.3     
  29 C29           -2.6441    11.7770    -0.8514 C.3     
  30 C30           -2.3022    12.2810    -2.2550 C.3     
  31 Si31          -1.3186    13.8578    -2.1261 Si      
  32 C32            0.2547    13.5330    -1.1826 C.3     
  33 C33           -0.9023    14.4715    -3.8351 C.3     
  34 C34           -2.3244    15.1459    -1.2316 C.3     
  35 C35           -1.5516    -1.3359    -0.0325 C.3     
  36 C36            0.8558    -0.6312    -0.2214 C.3     
  37 H37           -0.3439    -1.7743    -3.0369 H       
  38 H38           -0.8213    -0.7346    -5.2523 H       
  39 H39           -1.5186     1.6224    -5.3411 H       
  40 H40           -1.9226     3.7108    -2.6698 H       
  41 H41           -2.5733     6.0498    -2.2692 H       
  42 H42           -2.0559     5.4756     1.9341 H       
  43 H43           -1.4154     3.1333     1.5362 H       
  44 H44           -7.7334     5.8511    -0.5317 H       
  45 H45           -9.5484     7.5038    -0.5106 H       
  46 H46           -9.0539     9.8921    -0.1965 H       
  47 H47           -6.7360    10.6529     0.0992 H       
  48 H48           -4.3830    10.7269     0.8592 H       
  49 H49           -2.8741     9.7833     0.8878 H       
  50 H50           -3.2326    12.5305    -0.3281 H       
  51 H51           -1.7236    11.5869    -0.2994 H       
  52 H52           -1.7137    11.5274    -2.7783 H       
  53 H53           -3.2227    12.4710    -2.8070 H       
  54 H54            0.8432    12.7794    -1.7059 H       
  55 H55            0.8302    14.4556    -1.1072 H       
  56 H56            0.0111    13.1740    -0.1827 H       
  57 H57           -1.8228    14.6616    -4.3872 H       
  58 H58           -0.3268    15.3941    -3.7597 H       
  59 H59           -0.3138    13.7179    -4.3585 H       
  60 H60           -2.5680    14.7868    -0.2317 H       
  61 H61           -1.7489    16.0685    -1.1562 H       
  62 H62           -3.2449    15.3359    -1.7836 H       
  63 H63           -1.3592    -2.2520    -0.5910 H       
  64 H64           -1.3961    -1.5190     1.0306 H       
  65 H65           -2.5807    -1.0178    -0.1997 H       
  66 H66            1.5171     0.1818    -0.5212 H       
  67 H67            0.9774    -0.8242     0.8445 H       
  68 H68            1.1068    -1.5301    -0.7844 H       
@<TRIPOS>BOND
   1    1    2 ar
   2    1    6 ar
   3    1    7 1
   4    2    3 ar
   5    2    8 1
   6    3    4 ar
   7    3   37 1
   8    4    5 ar
   9    4   38 1
  10    5    6 ar
  11    5   39 1
  12    7    9 am
  13    7   11 1
  14    8    9 1
  15    8   35 1
  16    8   36 1
  17    9   10 2
  18   11   12 ar
  19   11   16 ar
  20   12   13 ar
  21   12   40 1
  22   13   14 ar
  23   13   41 1
  24   14   15 ar
  25   14   17 1
  26   15   16 ar
  27   15   42 1
  28   16   43 1
  29   17   18 1
  30   18   19 2
  31   18   22 1
  32   19   20 1
  33   20   21 ar
  34   20   23 ar
  35   21   22 1
  36   21   26 ar
  37   22   27 1
  38   23   24 ar
  39   23   44 1
  40   24   25 ar
  41   24   45 1
  42   25   26 ar
  43   25   46 1
  44   26   47 1
  45   27   28 1
  46   27   48 1
  47   27   49 1
  48   28   29 1
  49   29   30 1
  50   29   50 1
  51   29   51 1
  52   30   31 1
  53   30   52 1
  54   30   53 1
  55   31   32 1
  56   31   33 1
  57   31   34 1
  58   32   54 1
  59   32   55 1
  60   32   56 1
  61   33   57 1
  62   33   58 1
  63   33   59 1
  64   34   60 1
  65   34   61 1
  66   34   62 1
  67   35   63 1
  68   35   64 1
  69   35   65 1
  70   36   66 1
  71   36   67 1
  72   36   68 1

#	End of record

