#	Name: ASD01811089
#	Creating user name:	WinNT
#	Creation time:	15. 06. 2019 19:26

#	Modifying user name:	WinNT
#	Modification time:	15. 06. 2019 19:26

#	Program:	/corina/corina34_cracker 3.40 0067  02.08.2006

@<TRIPOS>MOLECULE
ASD01811089
  47   50    0    0    0
SMALL
NO_CHARGES


@<TRIPOS>ATOM
   1 C1            -0.0390     1.3765    -0.2114 C.2     
   2 C2            -0.0178    -0.0024    -0.2101 C.2     
   3 N3            -1.1549    -0.6981    -0.0021 N.pl3   
   4 C4            -2.3481    -0.1287     0.2198 C.2     
   5 C5            -2.5047     1.2406     0.2498 C.2     
   6 C6            -1.3124     2.0765     0.0226 C.2     
   7 C7            -1.0815    -2.1611    -0.0202 C.3     
   8 C8            -0.9273    -2.6738     1.3885 C.ar    
   9 O9            -1.3765     3.2939     0.0358 O.2     
  10 C10           -3.8220     1.8485     0.4958 C.2     
  11 O11           -4.7935     1.1410     0.6766 O.2     
  12 O12           -3.9511     3.1899     0.5207 O.3     
  13 C13           -2.0497    -2.9695     2.1409 C.ar    
  14 C14           -1.9143    -3.4393     3.4315 C.ar    
  15 C15           -0.6441    -3.6157     3.9763 C.ar    
  16 C16            0.4831    -3.3163     3.2139 C.ar    
  17 C17            0.3362    -2.8524     1.9223 C.ar    
  18 C18           -0.4923    -4.1201     5.3636 C.ar    
  19 C19            0.7780    -4.2965     5.9084 C.ar    
  20 C20            0.9134    -4.7660     7.1992 C.ar    
  21 C21           -0.2090    -5.0616     7.9516 C.ar    
  22 C22           -1.4724    -4.8888     7.4156 C.ar    
  23 C23           -1.6196    -4.4136     6.1282 C.ar    
  24 C24            1.1854     2.1480    -0.4480 C.2     
  25 C25            2.5040     1.4022    -0.4306 C.3     
  26 C26            2.2883     0.0812    -1.1815 C.3     
  27 C27            1.2633    -0.7642    -0.4312 C.3     
  28 O28            1.1438     3.3435    -0.6514 O.2     
  29 H29           -3.2099    -0.7598     0.3790 H       
  30 H30           -1.9951    -2.5654    -0.4560 H       
  31 H31           -0.2247    -2.4746    -0.6167 H       
  32 H32           -4.8361     3.5428     0.6859 H       
  33 H33           -3.0338    -2.8320     1.7177 H       
  34 H34           -2.7914    -3.6695     4.0183 H       
  35 H35            1.4700    -3.4512     3.6313 H       
  36 H36            1.2092    -2.6201     1.3305 H       
  37 H37            1.6550    -4.0666     5.3216 H       
  38 H38            1.8975    -4.9031     7.6225 H       
  39 H39           -0.0986    -5.4291     8.9611 H       
  40 H40           -2.3454    -5.1216     8.0073 H       
  41 H41           -2.6065    -4.2788     5.7107 H       
  42 H42            3.2711     1.9928    -0.9313 H       
  43 H43            2.8025     1.2000     0.5981 H       
  44 H44            1.9222     0.2897    -2.1868 H       
  45 H45            3.2320    -0.4608    -1.2427 H       
  46 H46            1.6776    -1.0537     0.5346 H       
  47 H47            1.0490    -1.6625    -1.0102 H       
@<TRIPOS>BOND
   1    1    2 2
   2    1   24 1
   3    1    6 1
   4    2    3 1
   5    2   27 1
   6    3    4 1
   7    3    7 1
   8    4    5 2
   9    4   29 1
  10    5    6 1
  11    5   10 1
  12    6    9 2
  13    7    8 1
  14    7   30 1
  15    7   31 1
  16    8   13 ar
  17    8   17 ar
  18   10   11 2
  19   10   12 1
  20   12   32 1
  21   13   14 ar
  22   13   33 1
  23   14   15 ar
  24   14   34 1
  25   15   16 ar
  26   15   18 1
  27   16   17 ar
  28   16   35 1
  29   17   36 1
  30   18   19 ar
  31   18   23 ar
  32   19   20 ar
  33   19   37 1
  34   20   21 ar
  35   20   38 1
  36   21   22 ar
  37   21   39 1
  38   22   23 ar
  39   22   40 1
  40   23   41 1
  41   24   25 1
  42   24   28 2
  43   25   26 1
  44   25   42 1
  45   25   43 1
  46   26   27 1
  47   26   44 1
  48   26   45 1
  49   27   46 1
  50   27   47 1

#	End of record

