#	Name: ASD00960285
#	Creating user name:	WinNT
#	Creation time:	15. 06. 2019 18:53

#	Modifying user name:	WinNT
#	Modification time:	15. 06. 2019 18:53

#	Program:	/corina/corina34_cracker 3.40 0067  02.08.2006

@<TRIPOS>MOLECULE
ASD00960285
  40   43    0    0    0
SMALL
NO_CHARGES


@<TRIPOS>ATOM
   1 C1            -0.0167     1.3786     0.0096 C.2     
   2 C2             0.0021    -0.0041     0.0020 C.2     
   3 N3             1.2772     1.8202    -0.0004 N.pl3   
   4 C4             2.1094     0.7459    -0.0004 C.2     
   5 C5             1.3582    -0.3982    -0.0066 C.2     
   6 N6             1.7776     3.1315     0.0043 N.2     
   7 C7             3.0428     3.3119    -0.2321 C.2     
   8 N8             3.8851     2.2617    -0.5241 N.pl3   
   9 C9             3.6110     0.9181     0.0171 C.3     
  10 N10            4.1136     0.8177     1.3938 N.3     
  11 C11            1.8700    -1.7853    -0.0192 C.2     
  12 S12            0.8780    -3.2411    -0.0270 S.3     
  13 C13            2.3370    -4.2297    -0.0397 C.2     
  14 C14            3.3947    -3.4146    -0.0371 C.2     
  15 N15            3.1268    -2.1272    -0.0319 N.2     
  16 C16           -1.2132     2.2223     0.0201 C.2     
  17 O17           -2.3172     1.7118     0.0233 O.2     
  18 O18           -1.0912     3.5657     0.0263 O.3     
  19 C19           -2.3200     4.3392     0.0366 C.3     
  20 C20           -1.9882     5.8092     0.0424 C.ar    
  21 C21           -1.8423     6.4895    -1.1521 C.ar    
  22 C22           -1.5379     7.8379    -1.1468 C.ar    
  23 C23           -1.3799     8.5061     0.0529 C.ar    
  24 C24           -1.5268     7.8260     1.2474 C.ar    
  25 C25           -1.8354     6.4786     1.2422 C.ar    
  26 H26           -0.8572    -0.6583     0.0029 H       
  27 H27            3.4451     4.3137    -0.1990 H       
  28 H28            4.6612     2.4067    -1.0876 H       
  29 H29            4.0809     0.1600    -0.6095 H       
  30 H30            5.1092     0.9778     1.4278 H       
  31 H31            3.6240     1.4542     2.0048 H       
  32 H32            2.3700    -5.3092    -0.0476 H       
  33 H33            4.4076    -3.7895    -0.0432 H       
  34 H34           -2.9058     4.1024    -0.8515 H       
  35 H35           -2.8966     4.0934     0.9284 H       
  36 H36           -1.9657     5.9674    -2.0895 H       
  37 H37           -1.4232     8.3692    -2.0801 H       
  38 H38           -1.1414     9.5595     0.0570 H       
  39 H39           -1.4030     8.3480     2.1847 H       
  40 H40           -1.9538     5.9481     2.1754 H       
@<TRIPOS>BOND
   1    1    2 2
   2    1    3 1
   3    1   16 1
   4    2    5 1
   5    2   26 1
   6    3    4 1
   7    3    6 1
   8    4    5 2
   9    4    9 1
  10    5   11 1
  11    6    7 2
  12    7    8 1
  13    7   27 1
  14    8    9 1
  15    8   28 1
  16    9   10 1
  17    9   29 1
  18   10   30 1
  19   10   31 1
  20   11   12 1
  21   11   15 2
  22   12   13 1
  23   13   14 2
  24   13   32 1
  25   14   15 1
  26   14   33 1
  27   16   17 2
  28   16   18 1
  29   18   19 1
  30   19   20 1
  31   19   34 1
  32   19   35 1
  33   20   21 ar
  34   20   25 ar
  35   21   22 ar
  36   21   36 1
  37   22   23 ar
  38   22   37 1
  39   23   24 ar
  40   23   38 1
  41   24   25 ar
  42   24   39 1
  43   25   40 1

#	End of record

