#	Name: ASD01231396
#	Creating user name:	WinNT
#	Creation time:	15. 06. 2019 19:15

#	Modifying user name:	WinNT
#	Modification time:	15. 06. 2019 19:15

#	Program:	/corina/corina34_cracker 3.40 0067  02.08.2006

@<TRIPOS>MOLECULE
ASD01231396
  49   51    0    0    0
SMALL
NO_CHARGES


@<TRIPOS>ATOM
   1 C1            -0.0180     1.4730     0.0101 C.2     
   2 C2             0.0021    -0.0041     0.0020 C.ar    
   3 C3            -1.1958    -0.7218     0.0096 C.ar    
   4 C4            -1.1699    -2.1008     0.0015 C.ar    
   5 C5             0.0396    -2.7731    -0.0137 C.ar    
   6 C6             1.2301    -2.0683    -0.0208 C.ar    
   7 C7             1.2186    -0.6887    -0.0191 C.ar    
   8 O8             1.0256     2.0946     0.0035 O.2     
   9 O9            -1.1936     2.1307     0.0193 O.3     
  10 C10            2.5423    -2.8092    -0.0364 C.3     
  11 C11            4.3011    -3.4883    -5.4905 C.3     
  12 C12            4.7036    -2.0244    -5.7687 C.3     
  13 C13            4.9864    -1.4835    -4.3511 C.3     
  14 C14            4.1420    -2.3343    -3.4267 C.ar    
  15 C15            3.7495    -2.1178    -2.1163 C.ar    
  16 C16            2.9669    -3.0490    -1.4623 C.ar    
  17 C17            2.5731    -4.2011    -2.1171 C.ar    
  18 C18            2.9630    -4.4186    -3.4240 C.ar    
  19 C19            3.7482    -3.4861    -4.0814 C.ar    
  20 S20            5.7766    -1.7705    -8.2383 S.o2    
  21 O21            7.1196    -1.7833    -8.7023 O.2     
  22 O22            4.8543    -2.7754    -8.6367 O.2     
  23 N23            5.9091    -1.9646    -6.5990 N.am    
  24 C24            5.0485    -0.1215    -8.4415 C.3     
  25 F25            5.8936     0.8351    -7.8689 F       
  26 F26            4.8888     0.1531    -9.8040 F       
  27 F27            3.8017    -0.0810    -7.8083 F       
  28 C28           -2.4615    -2.8771     0.0096 C.3     
  29 F29           -3.5406    -1.9868     0.0252 F       
  30 F30           -2.5326    -3.6760    -1.1366 F       
  31 F31           -2.5104    -3.6891     1.1478 F       
  32 C32           -1.1373     3.5816     0.0269 C.3     
  33 H33           -2.1404    -0.1983     0.0222 H       
  34 H34            0.0543    -3.8530    -0.0197 H       
  35 H35            2.1485    -0.1397    -0.0296 H       
  36 H36            3.3008    -2.2154     0.4737 H       
  37 H37            2.4257    -3.7654     0.4737 H       
  38 H38            3.5359    -3.8109    -6.1966 H       
  39 H39            5.1734    -4.1389    -5.5535 H       
  40 H40            3.8832    -1.4789    -6.2350 H       
  41 H41            6.0430    -1.5949    -4.1076 H       
  42 H42            4.6891    -0.4373    -4.2791 H       
  43 H43            4.0574    -1.2184    -1.6038 H       
  44 H44            1.9614    -4.9305    -1.6071 H       
  45 H45            2.6550    -5.3188    -3.9349 H       
  46 H46            6.7848    -2.0387    -6.1886 H       
  47 H47           -0.6140     3.9295    -0.8637 H       
  48 H48           -2.1501     3.9844     0.0339 H       
  49 H49           -0.6055     3.9199     0.9162 H       
@<TRIPOS>BOND
   1    1    2 1
   2    1    8 2
   3    1    9 1
   4    2    3 ar
   5    2    7 ar
   6    3    4 ar
   7    3   33 1
   8    4    5 ar
   9    4   28 1
  10    5    6 ar
  11    5   34 1
  12    6    7 ar
  13    6   10 1
  14    7   35 1
  15    9   32 1
  16   10   16 1
  17   10   36 1
  18   10   37 1
  19   11   12 1
  20   11   19 1
  21   11   38 1
  22   11   39 1
  23   12   13 1
  24   12   23 1
  25   12   40 1
  26   13   14 1
  27   13   41 1
  28   13   42 1
  29   14   15 ar
  30   14   19 ar
  31   15   16 ar
  32   15   43 1
  33   16   17 ar
  34   17   18 ar
  35   17   44 1
  36   18   19 ar
  37   18   45 1
  38   20   21 2
  39   20   22 2
  40   20   23 am
  41   20   24 1
  42   23   46 1
  43   24   25 1
  44   24   26 1
  45   24   27 1
  46   28   29 1
  47   28   30 1
  48   28   31 1
  49   32   47 1
  50   32   48 1
  51   32   49 1

#	End of record

