#	Name: ASD01885836
#	Creating user name:	WinNT
#	Creation time:	15. 06. 2019 19:50

#	Modifying user name:	WinNT
#	Modification time:	15. 06. 2019 19:50

#	Program:	/corina/corina34_cracker 3.40 0067  02.08.2006

@<TRIPOS>MOLECULE
ASD01885836
  48   51    0    0    0
SMALL
NO_CHARGES


@<TRIPOS>ATOM
   1 C1            -0.0660     1.2733     0.4746 C.ar    
   2 C2            -0.0136    -0.0276    -0.0873 C.ar    
   3 C3             1.2296    -0.7094    -0.1276 C.ar    
   4 C4             2.3432    -0.0628     0.3900 C.ar    
   5 C5             2.2065     1.2228     0.9276 C.ar    
   6 N6             1.0412     1.8400     0.9562 N.ar    
   7 C7            -2.4329     1.3368     0.0196 C.ar    
   8 C8            -2.3607     0.0504    -0.5427 C.ar    
   9 C9            -1.1797    -0.6208    -0.5919 C.ar    
  10 C10            1.3359    -2.0694    -0.7037 C.ar    
  11 C11            3.4009     1.9069     1.4791 C.2     
  12 C12           -3.7306     2.0446     0.0664 C.2     
  13 N13           -4.8169     1.4276     0.5720 N.am    
  14 C14           -1.2986     1.9503     0.5211 C.ar    
  15 N15            3.2878     3.1442     2.0013 N.am    
  16 O16            4.4816     1.3520     1.4603 O.2     
  17 C17           -4.7479     0.0249     1.0038 C.3     
  18 C18           -5.2508    -0.0718     2.4476 C.3     
  19 C19           -6.6479     0.5461     2.5394 C.3     
  20 C20           -6.5803     2.0244     2.1495 C.3     
  21 C21           -6.0910     2.1466     0.7075 C.3     
  22 O22           -3.8174     3.1828    -0.3511 O.2     
  23 C23            2.3196    -2.3531    -1.6513 C.ar    
  24 C24            2.4148    -3.6214    -2.1846 C.ar    
  25 C25            1.5352    -4.6133    -1.7805 C.ar    
  26 C26            0.5562    -4.3365    -0.8394 C.ar    
  27 C27            0.4562    -3.0727    -0.2963 C.ar    
  28 F28            1.6322    -5.8541    -2.3062 F       
  29 H29            3.3081    -0.5479     0.3786 H       
  30 H30           -3.2541    -0.4112    -0.9364 H       
  31 H31           -1.1394    -1.6114    -1.0202 H       
  32 H32           -1.3590     2.9415     0.9456 H       
  33 H33            2.4250     3.5873     2.0164 H       
  34 H34            4.0691     3.5917     2.3621 H       
  35 H35           -5.3752    -0.5880     0.3565 H       
  36 H36           -3.7162    -0.3230     0.9521 H       
  37 H37           -5.2956    -1.1187     2.7479 H       
  38 H38           -4.5705     0.4674     3.1067 H       
  39 H39           -7.3219     0.0222     1.8616 H       
  40 H40           -7.0183     0.4564     3.5606 H       
  41 H41           -7.5714     2.4696     2.2376 H       
  42 H42           -5.8875     2.5439     2.8114 H       
  43 H43           -5.9469     3.1979     0.4584 H       
  44 H44           -6.8261     1.7067     0.0337 H       
  45 H45            3.0053    -1.5807    -1.9671 H       
  46 H46            3.1758    -3.8419    -2.9185 H       
  47 H47           -0.1269    -5.1127    -0.5277 H       
  48 H48           -0.3070    -2.8579     0.4370 H       
@<TRIPOS>BOND
   1    1    2 ar
   2    1    6 ar
   3    1   14 ar
   4    2    3 ar
   5    2    9 ar
   6    3   10 1
   7    3    4 ar
   8    4    5 ar
   9    4   29 1
  10    5   11 1
  11    5    6 ar
  12    7   12 1
  13    7   14 ar
  14    7    8 ar
  15    8    9 ar
  16    8   30 1
  17    9   31 1
  18   10   23 ar
  19   10   27 ar
  20   11   15 am
  21   11   16 2
  22   12   13 am
  23   12   22 2
  24   13   17 1
  25   13   21 1
  26   14   32 1
  27   15   33 1
  28   15   34 1
  29   17   18 1
  30   17   35 1
  31   17   36 1
  32   18   19 1
  33   18   37 1
  34   18   38 1
  35   19   20 1
  36   19   39 1
  37   19   40 1
  38   20   21 1
  39   20   41 1
  40   20   42 1
  41   21   43 1
  42   21   44 1
  43   23   24 ar
  44   23   45 1
  45   24   25 ar
  46   24   46 1
  47   25   26 ar
  48   25   28 1
  49   26   27 ar
  50   26   47 1
  51   27   48 1

#	End of record

