#	Name: ASD01028635
#	Creating user name:	WinNT
#	Creation time:	15. 06. 2019 18:57

#	Modifying user name:	WinNT
#	Modification time:	15. 06. 2019 18:57

#	Program:	/corina/corina34_cracker 3.40 0067  02.08.2006

@<TRIPOS>MOLECULE
ASD01028635
  49   53    0    0    0
SMALL
NO_CHARGES


@<TRIPOS>ATOM
   1 C1            -0.0164     1.3590     0.0095 C.2     
   2 N2             0.0021    -0.0041     0.0020 N.pl3   
   3 C3             1.1472     2.0640     0.0022 C.2     
   4 C4             2.3887     1.3853    -0.0133 C.2     
   5 C5             2.4116     0.0258    -0.0208 C.2     
   6 C6             1.1933    -0.6865    -0.0130 C.2     
   7 N7             0.8963    -1.9758    -0.0175 N.2     
   8 N8            -0.3820    -2.1221    -0.0063 N.2     
   9 C9            -0.9719    -0.9546     0.0062 C.2     
  10 C10           -3.7124    -0.5497     2.1554 C.ar    
  11 C11           -3.0591    -1.3335     1.2537 C.ar    
  12 C12           -2.9391    -2.7068     1.4552 C.ar    
  13 C13           -3.4705    -3.3044     2.5565 C.ar    
  14 C14           -4.1523    -2.5292     3.5105 C.ar    
  15 C15           -4.2729    -1.1322     3.3037 C.ar    
  16 N16           -4.6843    -3.0903     4.6012 N.ar    
  17 C17           -5.3218    -2.3751     5.4949 C.ar    
  18 C18           -5.4778    -0.9925     5.3537 C.ar    
  19 C19           -4.9555    -0.3564     4.2585 C.ar    
  20 C20            1.1143     3.5477     0.0100 C.ar    
  21 C21           -2.4584    -0.7073     0.0216 C.3     
  22 F22            3.5889    -0.6365    -0.0360 F       
  23 C23           -3.0915    -1.3270    -1.2258 C.3     
  24 O24           -6.1448    -0.2817     6.3008 O.3     
  25 C25           -6.6613    -1.0115     7.4156 C.3     
  26 C26            1.6182     4.2519     1.1012 C.ar    
  27 C27            0.5846     4.2404    -1.0765 C.ar    
  28 C28            0.5564     5.6226    -1.0653 C.ar    
  29 C29            1.0537     6.3186     0.0240 C.ar    
  30 C30            1.5860     5.6341     1.1040 C.ar    
  31 F31            0.0434     6.2954    -2.1186 F       
  32 F32            2.0698     6.3179     2.1640 F       
  33 H33           -0.9609     1.8827     0.0168 H       
  34 H34            3.3130     1.9439    -0.0195 H       
  35 H35           -3.7952     0.5144     1.9906 H       
  36 H36           -2.4161    -3.3070     0.7253 H       
  37 H37           -3.3689    -4.3704     2.6969 H       
  38 H38           -5.7378    -2.8658     6.3624 H       
  39 H39           -5.0649     0.7105     4.1315 H       
  40 H40           -2.6481     0.3661     0.0302 H       
  41 H41           -4.1667    -1.1482    -1.2146 H       
  42 H42           -2.6571    -0.8741    -2.1170 H       
  43 H43           -2.9018    -2.4004    -1.2344 H       
  44 H44           -7.3671    -1.7632     7.0623 H       
  45 H45           -5.8412    -1.5014     7.9406 H       
  46 H46           -7.1695    -0.3264     8.0943 H       
  47 H47            2.0332     3.7189     1.9439 H       
  48 H48            0.1970     3.6984    -1.9265 H       
  49 H49            1.0301     7.3983     0.0295 H       
@<TRIPOS>BOND
   1    1    2 1
   2    1    3 2
   3    1   33 1
   4    2    6 1
   5    2    9 1
   6    3    4 1
   7    3   20 1
   8    4    5 2
   9    4   34 1
  10    5    6 1
  11    5   22 1
  12    6    7 2
  13    7    8 1
  14    8    9 2
  15    9   21 1
  16   10   11 ar
  17   10   15 ar
  18   10   35 1
  19   11   12 ar
  20   11   21 1
  21   12   13 ar
  22   12   36 1
  23   13   14 ar
  24   13   37 1
  25   14   15 ar
  26   14   16 ar
  27   15   19 ar
  28   16   17 ar
  29   17   18 ar
  30   17   38 1
  31   18   19 ar
  32   18   24 1
  33   19   39 1
  34   20   26 ar
  35   20   27 ar
  36   21   23 1
  37   21   40 1
  38   23   41 1
  39   23   42 1
  40   23   43 1
  41   24   25 1
  42   25   44 1
  43   25   45 1
  44   25   46 1
  45   26   30 ar
  46   26   47 1
  47   27   28 ar
  48   27   48 1
  49   28   29 ar
  50   28   31 1
  51   29   30 ar
  52   29   49 1
  53   30   32 1

#	End of record

