#	Name: ASD01884032
#	Creating user name:	WinNT
#	Creation time:	15. 06. 2019 19:47

#	Modifying user name:	WinNT
#	Modification time:	15. 06. 2019 19:47

#	Program:	/corina/corina34_cracker 3.40 0067  02.08.2006

@<TRIPOS>MOLECULE
ASD01884032
  52   54    0    0    0
SMALL
NO_CHARGES


@<TRIPOS>ATOM
   1 Cl1            0.0000     0.0000     0.0000 Cl      
   2 H2             0.0000     1.3700     0.0000 H       
   3 C3             7.7389    15.8350    19.0491 C.3     
   4 C4             7.8763    14.3148    18.9435 C.3     
   5 C5             8.6062    13.9576    17.6471 C.3     
   6 C6             8.7436    12.4375    17.5415 C.3     
   7 N7             9.4425    12.0954    16.3002 N.am    
   8 C8             8.8156    11.8454    14.9976 C.3     
   9 N9             9.8993    11.5434    14.0600 N.pl3   
  10 C10           11.0767    11.6099    14.7553 C.2     
  11 N11           12.0662    11.3403    13.9241 N.2     
  12 C12           11.5805    11.1004    12.7130 C.2     
  13 C13           12.3881    10.7548    11.4885 C.3     
  14 C14           10.2064    11.2224    12.7698 C.2     
  15 C15            9.2557    11.0411    11.6535 C.ar    
  16 C16            8.0862    10.3025    11.8433 C.ar    
  17 C17            7.2009    10.1349    10.7997 C.ar    
  18 C18            7.4703    10.6993     9.5604 C.ar    
  19 O19            6.5950    10.5317     8.5347 O.3     
  20 C20            6.8134     9.5078     7.6720 C.ar    
  21 C21            5.8878     9.2469     6.6659 C.ar    
  22 C22            6.1165     8.2006     5.7886 C.ar    
  23 C23            7.2678     7.4440     5.9445 C.ar    
  24 C24            8.1534     7.7586     6.9731 C.ar    
  25 N25            7.9040     8.7739     7.7933 N.ar    
  26 C26            9.3457     6.9843     7.1446 C.1     
  27 N27           10.2916     6.3700     7.2806 N.1     
  28 C28            8.6341    11.4367     9.3661 C.ar    
  29 F29            8.8920    11.9851     8.1587 F       
  30 C30            9.5220    11.6130    10.4072 C.ar    
  31 C31           10.7734    11.9608    16.1523 C.2     
  32 O32           11.5971    12.1047    17.0357 O.2     
  33 H33            8.7294    16.2900    19.0526 H       
  34 H34            7.1705    16.2085    18.1974 H       
  35 H35            7.2189    16.0895    19.9727 H       
  36 H36            8.4447    13.9413    19.7953 H       
  37 H37            6.8858    13.8598    18.9400 H       
  38 H38            8.0378    14.3311    16.7954 H       
  39 H39            9.5967    14.4126    17.6506 H       
  40 H40            9.3120    12.0640    18.3932 H       
  41 H41            7.7531    11.9825    17.5380 H       
  42 H42            8.1356    10.9963    15.0677 H       
  43 H43            8.2735    12.7318    14.6682 H       
  44 H44           12.5040     9.6729    11.4231 H       
  45 H45           11.8739    11.1195    10.5993 H       
  46 H46           13.3705    11.2219    11.5574 H       
  47 H47            7.8753     9.8624    12.8067 H       
  48 H48            6.2964     9.5633    10.9465 H       
  49 H49            5.0000     9.8544     6.5706 H       
  50 H50            5.4129     7.9782     5.0000 H       
  51 H51            7.4755     6.6207     5.2771 H       
  52 H52           10.4232    12.1891    10.2578 H       
@<TRIPOS>BOND
   1    1    2 1
   2    3    4 1
   3    3   33 1
   4    3   34 1
   5    3   35 1
   6    4    5 1
   7    4   36 1
   8    4   37 1
   9    5    6 1
  10    5   38 1
  11    5   39 1
  12    6    7 1
  13    6   40 1
  14    6   41 1
  15    7   31 am
  16    7    8 1
  17    8    9 1
  18    8   42 1
  19    8   43 1
  20    9   14 1
  21    9   10 1
  22   10   11 2
  23   10   31 1
  24   11   12 1
  25   12   13 1
  26   12   14 2
  27   13   44 1
  28   13   45 1
  29   13   46 1
  30   14   15 1
  31   15   30 ar
  32   15   16 ar
  33   16   17 ar
  34   16   47 1
  35   17   18 ar
  36   17   48 1
  37   18   19 1
  38   18   28 ar
  39   19   20 1
  40   20   25 ar
  41   20   21 ar
  42   21   22 ar
  43   21   49 1
  44   22   23 ar
  45   22   50 1
  46   23   24 ar
  47   23   51 1
  48   24   25 ar
  49   24   26 1
  50   26   27 3
  51   28   29 1
  52   28   30 ar
  53   30   52 1
  54   31   32 2

#	End of record

