#	Name: ASD01890490
#	Creating user name:	WinNT
#	Creation time:	15. 06. 2019 19:51

#	Modifying user name:	WinNT
#	Modification time:	15. 06. 2019 19:51

#	Program:	/corina/corina34_cracker 3.40 0067  02.08.2006

@<TRIPOS>MOLECULE
ASD01890490
  41   44    0    0    0
SMALL
NO_CHARGES


@<TRIPOS>ATOM
   1 C1            -0.0184     1.5028     0.0103 C.2     
   2 C2             0.0021    -0.0041     0.0020 C.3     
   3 C3             1.4513    -0.4944    -0.0145 C.3     
   4 O4             1.0235     2.1233     0.0037 O.2     
   5 N5             0.8326    -2.6531     0.9179 N.ar    
   6 C6             1.4717    -2.0012    -0.0227 C.ar    
   7 C7             2.1691    -2.6644    -1.0304 C.ar    
   8 C8             2.1986    -4.0297    -1.0539 C.ar    
   9 C9             1.5115    -4.7264    -0.0419 C.ar    
  10 C10            1.4966    -6.1296    -0.0010 C.ar    
  11 C11            0.8199    -6.7667     0.9943 C.ar    
  12 C12            0.1412    -6.0443     1.9733 C.ar    
  13 C13            0.1348    -4.6832     1.9640 C.ar    
  14 C14            0.8221    -3.9895     0.9531 C.ar    
  15 C15           -1.3153     3.6091     0.0279 C.ar    
  16 C16           -1.3018     2.2207     0.0203 C.ar    
  17 C17           -2.5093     1.4953     0.0216 C.ar    
  18 C18           -3.7051     2.1360     0.0303 C.ar    
  19 C19           -3.7513     3.5425     0.0381 C.ar    
  20 C20           -4.9782     4.2261     0.0461 C.ar    
  21 C21           -4.9927     5.5876     0.0531 C.ar    
  22 C22           -3.8060     6.3184     0.0521 C.ar    
  23 C23           -2.5980     5.6917     0.0444 C.ar    
  24 C24           -2.5431     4.2859     0.0374 C.ar    
  25 H25           -0.4983    -0.3791     0.8948 H       
  26 H26           -0.5153    -0.3696    -0.8850 H       
  27 H27            1.9516    -0.1193    -0.9073 H       
  28 H28            1.9686    -0.1289     0.8726 H       
  29 H29            2.6855    -2.0994    -1.7922 H       
  30 H30            2.7339    -4.5600    -1.8277 H       
  31 H31            2.0184    -6.7005    -0.7547 H       
  32 H32            0.8090    -7.8462     1.0250 H       
  33 H33           -0.3888    -6.5727     2.7519 H       
  34 H34           -0.3967    -4.1384     2.7302 H       
  35 H35           -0.3881     4.1628     0.0310 H       
  36 H36           -2.4828     0.4156     0.0153 H       
  37 H37           -4.6225     1.5661     0.0308 H       
  38 H38           -5.9065     3.6741     0.0463 H       
  39 H39           -5.9383     6.1093     0.0593 H       
  40 H40           -3.8456     7.3977     0.0571 H       
  41 H41           -1.6862     6.2706     0.0441 H       
@<TRIPOS>BOND
   1    1    2 1
   2    1    4 2
   3    1   16 1
   4    2    3 1
   5    2   25 1
   6    2   26 1
   7    3    6 1
   8    3   27 1
   9    3   28 1
  10    5    6 ar
  11    5   14 ar
  12    6    7 ar
  13    7    8 ar
  14    7   29 1
  15    8    9 ar
  16    8   30 1
  17    9   10 ar
  18    9   14 ar
  19   10   11 ar
  20   10   31 1
  21   11   12 ar
  22   11   32 1
  23   12   13 ar
  24   12   33 1
  25   13   14 ar
  26   13   34 1
  27   15   16 ar
  28   15   24 ar
  29   15   35 1
  30   16   17 ar
  31   17   18 ar
  32   17   36 1
  33   18   19 ar
  34   18   37 1
  35   19   20 ar
  36   19   24 ar
  37   20   21 ar
  38   20   38 1
  39   21   22 ar
  40   21   39 1
  41   22   23 ar
  42   22   40 1
  43   23   24 ar
  44   23   41 1

#	End of record

