#	Name: ASD03730673
#	Creating user name:	WinNT
#	Creation time:	15. 06. 2019 20:44

#	Modifying user name:	WinNT
#	Modification time:	15. 06. 2019 20:44

#	Program:	/corina/corina34_cracker 3.40 0067  02.08.2006

@<TRIPOS>MOLECULE
ASD03730673
  53   59    0    0    0
SMALL
NO_CHARGES


@<TRIPOS>ATOM
   1 O1            -0.0249     0.8834    -0.0047 O.3     
   2 C2            -0.0405    -0.4614    -0.2286 C.ar    
   3 C3             1.1864    -0.9045    -0.7170 C.ar    
   4 C4             2.0817     0.3026    -0.7888 C.3     
   5 C5             1.3392     1.3407     0.0641 C.3     
   6 O6            -1.7383    -3.7732    -0.2225 O.3     
   7 C7            -0.8765    -2.7249    -0.3394 C.ar    
   8 C8             0.3516    -3.1388    -0.8399 C.ar    
   9 C9             0.2524    -4.6316    -1.0863 C.3     
  10 C10           -1.2770    -4.8612    -1.0408 C.3     
  11 C11            1.3757    -2.2352    -1.0233 C.ar    
  12 C12           -1.0654    -1.3804    -0.0399 C.ar    
  13 N13            4.3193     0.3121    -1.2533 N.am    
  14 C14            3.4582     0.0239    -0.2570 C.2     
  15 C15            2.2886     0.7796    -2.1955 C.ar    
  16 C16            1.4291     1.1915    -3.2046 C.ar    
  17 C17            1.9468     1.5868    -4.4375 C.ar    
  18 C18            3.3119     1.5657    -4.6449 C.ar    
  19 C19            4.1659     1.1562    -3.6412 C.ar    
  20 C20            3.6631     0.7584    -2.4035 C.ar    
  21 O21            3.7398    -0.3805     0.8513 O.2     
  22 C22            5.7736     0.1743    -1.1428 C.3     
  23 C23            6.1809    -1.2118    -1.5718 C.ar    
  24 C24            6.5878    -1.4318    -2.8743 C.ar    
  25 C25            6.9609    -2.7104    -3.2587 C.ar    
  26 C26            6.9104    -3.7246    -2.3142 C.ar    
  27 C27            6.4929    -3.4291    -1.0305 C.ar    
  28 N28            6.1501    -2.1995    -0.6989 N.ar    
  29 O29           -2.0164     1.6557    -2.1485 O.3     
  30 C30           -0.7065     1.9125    -2.0219 C.2     
  31 C31           -0.0368     1.2107    -2.9721 C.2     
  32 C32           -1.0616     0.4758    -3.7217 C.2     
  33 C33           -2.2376     0.8008    -3.1586 C.2     
  34 H34            1.4357     2.3369    -0.3678 H       
  35 H35            1.7006     1.3268     1.0923 H       
  36 H36            0.6567    -4.8927    -2.0643 H       
  37 H37            0.7541    -5.1911    -0.2968 H       
  38 H38           -1.5098    -5.8194    -0.5764 H       
  39 H39           -1.7063    -4.8012    -2.0409 H       
  40 H40            2.3277    -2.5699    -1.4079 H       
  41 H41           -2.0183    -1.0470     0.3437 H       
  42 H42            1.2831     1.9077    -5.2268 H       
  43 H43            3.7140     1.8715    -5.5995 H       
  44 H44            5.2316     1.1441    -3.8158 H       
  45 H45            6.2581     0.9103    -1.7844 H       
  46 H46            6.0766     0.3383    -0.1087 H       
  47 H47            6.6145    -0.6179    -3.5838 H       
  48 H48            7.2828    -2.9120    -4.2697 H       
  49 H49            7.1934    -4.7327    -2.5787 H       
  50 H50            6.4508    -4.2133    -0.2892 H       
  51 H51           -0.2596     2.5670    -1.2881 H       
  52 H52           -0.9031    -0.1906    -4.5566 H       
  53 H53           -3.2045     0.4328    -3.4686 H       
@<TRIPOS>BOND
   1    1    2 1
   2    1    5 1
   3    2    3 ar
   4    2   12 ar
   5    3    4 1
   6    3   11 ar
   7    4    5 1
   8    4   14 1
   9    4   15 1
  10    5   34 1
  11    5   35 1
  12    6    7 1
  13    6   10 1
  14    7    8 ar
  15    7   12 ar
  16    8    9 1
  17    8   11 ar
  18    9   10 1
  19    9   36 1
  20    9   37 1
  21   10   38 1
  22   10   39 1
  23   11   40 1
  24   12   41 1
  25   13   14 am
  26   13   20 1
  27   13   22 1
  28   14   21 2
  29   15   16 ar
  30   15   20 ar
  31   16   17 ar
  32   16   31 1
  33   17   18 ar
  34   17   42 1
  35   18   19 ar
  36   18   43 1
  37   19   20 ar
  38   19   44 1
  39   22   23 1
  40   22   45 1
  41   22   46 1
  42   23   24 ar
  43   23   28 ar
  44   24   25 ar
  45   24   47 1
  46   25   26 ar
  47   25   48 1
  48   26   27 ar
  49   26   49 1
  50   27   28 ar
  51   27   50 1
  52   29   30 1
  53   29   33 1
  54   30   31 2
  55   30   51 1
  56   31   32 1
  57   32   33 2
  58   32   52 1
  59   33   53 1

#	End of record

