#	Name: ASD01915199
#	Creating user name:	WinNT
#	Creation time:	15. 06. 2019 20:05

#	Modifying user name:	WinNT
#	Modification time:	15. 06. 2019 20:05

#	Program:	/corina/corina34_cracker 3.40 0067  02.08.2006

@<TRIPOS>MOLECULE
ASD01915199
  51   55    0    0    0
SMALL
NO_CHARGES


@<TRIPOS>ATOM
   1 C1            -0.0162     1.3436     0.0094 C.2     
   2 N2             0.0021    -0.0041     0.0020 N.am    
   3 C3             1.0368    -1.0490    -0.0135 C.3     
   4 C4             0.0358    -1.9749     0.6913 C.3     
   5 C5            -1.0039    -1.0768     0.0125 C.3     
   6 O6            -0.2019    -3.8004    -1.0585 O.3     
   7 N7            -0.1077    -5.0074    -1.1314 N.2     
   8 C8             0.2085    -5.5047     0.0359 C.2     
   9 N9             0.3124    -4.4673     0.8969 N.2     
  10 C10            0.0501    -3.3961     0.1904 C.2     
  11 C11            0.4142    -6.9394     0.3559 C.ar    
  12 C12            0.2728    -7.9047    -0.6388 C.ar    
  13 C13            0.7994    -9.6156     0.9543 C.ar    
  14 C14            0.7551    -7.3248     1.6505 C.ar    
  15 C15            0.4659    -9.2383    -0.3354 C.ar    
  16 C16            0.9459    -8.6603     1.9433 C.ar    
  17 Cl17           0.2897   -10.4430    -1.5728 Cl      
  18 O18            1.0258     1.9642     0.0028 O.2     
  19 C19           -1.3314     2.0792     0.0197 C.3     
  20 C20           -1.0713     3.5866     0.0266 C.3     
  21 C21           -2.4069     4.3339     0.0813 C.3     
  22 C22           -3.2629     3.9223    -1.1146 C.3     
  23 C23           -3.4907     2.4142    -1.1926 C.3     
  24 C24           -2.1361     1.7004    -1.2249 C.3     
  25 C25           -4.5495     4.7448    -1.2597 C.3     
  26 C26           -4.2882     4.7350    -2.7758 C.3     
  27 C27           -2.7995     4.5404    -2.4401 C.3     
  28 H28            1.3033    -1.3812    -1.0168 H       
  29 H29            1.9075    -0.8068     0.5960 H       
  30 H30            0.0455    -1.8987     1.7786 H       
  31 H31           -1.8650    -0.8582     0.6439 H       
  32 H32           -1.2866    -1.4165    -0.9839 H       
  33 H33            0.0123    -7.6108    -1.6448 H       
  34 H34            0.9492   -10.6593     1.1879 H       
  35 H35            0.8702    -6.5798     2.4239 H       
  36 H36            1.2061    -8.9600     2.9477 H       
  37 H37           -1.8938     1.8042     0.9119 H       
  38 H38           -0.4725     3.8481     0.8991 H       
  39 H39           -0.5348     3.8670    -0.8798 H       
  40 H40           -2.9273     4.0821     1.0054 H       
  41 H41           -2.2248     5.4080     0.0462 H       
  42 H42           -4.0546     2.0855    -0.3196 H       
  43 H43           -4.0490     2.1766    -2.0981 H       
  44 H44           -1.5879     2.0014    -2.1176 H       
  45 H45           -2.2938     0.6220    -1.2414 H       
  46 H46           -5.4495     4.2033    -0.9680 H       
  47 H47           -4.4869     5.7366    -0.8119 H       
  48 H48           -4.7345     3.8839    -3.2902 H       
  49 H49           -4.5052     5.6860    -3.2623 H       
  50 H50           -2.2531     5.4757    -2.3187 H       
  51 H51           -2.2920     3.8345    -3.0976 H       
@<TRIPOS>BOND
   1    1    2 am
   2    1   18 2
   3    1   19 1
   4    2    3 1
   5    2    5 1
   6    3    4 1
   7    3   28 1
   8    3   29 1
   9    4    5 1
  10    4   10 1
  11    4   30 1
  12    5   31 1
  13    5   32 1
  14    6    7 1
  15    6   10 1
  16    7    8 2
  17    8    9 1
  18    8   11 1
  19    9   10 2
  20   11   12 ar
  21   11   14 ar
  22   12   15 ar
  23   12   33 1
  24   13   15 ar
  25   13   16 ar
  26   13   34 1
  27   14   16 ar
  28   14   35 1
  29   15   17 1
  30   16   36 1
  31   19   20 1
  32   19   24 1
  33   19   37 1
  34   20   21 1
  35   20   38 1
  36   20   39 1
  37   21   22 1
  38   21   40 1
  39   21   41 1
  40   22   23 1
  41   22   25 1
  42   22   27 1
  43   23   24 1
  44   23   42 1
  45   23   43 1
  46   24   44 1
  47   24   45 1
  48   25   26 1
  49   25   46 1
  50   25   47 1
  51   26   27 1
  52   26   48 1
  53   26   49 1
  54   27   50 1
  55   27   51 1

#	End of record

