#	Name: ASD01209124
#	Creating user name:	WinNT
#	Creation time:	15. 06. 2019 19:11

#	Modifying user name:	WinNT
#	Modification time:	15. 06. 2019 19:11

#	Program:	/corina/corina34_cracker 3.40 0067  02.08.2006

@<TRIPOS>MOLECULE
ASD01209124
  79   82    0    0    0
SMALL
NO_CHARGES


@<TRIPOS>ATOM
   1 C1            -0.6492     3.5726     0.2137 C.ar    
   2 C2            -0.4522     2.2066     0.0709 C.ar    
   3 C3            -1.5054     1.3855    -0.3050 C.ar    
   4 C4            -2.7588     1.9270    -0.5399 C.ar    
   5 C5            -2.9611     3.2999    -0.3974 C.ar    
   6 C6            -1.9003     4.1214    -0.0136 C.ar    
   7 O7             0.3857     4.3726     0.5826 O.3     
   8 C8             0.0986     5.7598     0.7701 C.3     
   9 O9            -1.3071     0.0482    -0.4434 O.3     
  10 C10           -1.3322    -0.4724    -1.6939 C.ar    
  11 N11           -1.4630     0.3286    -2.7426 N.ar    
  12 C12           -4.2968     3.8822    -0.6475 C.2     
  13 N13           -5.3211     3.0865    -1.0136 N.am    
  14 O14           -4.4712     5.0788    -0.5228 O.2     
  15 C15           -6.5867     3.6382    -1.2505 C.2     
  16 N16           -7.6613     2.9763    -1.6099 N.2     
  17 N17           -8.7138     3.8910    -1.7426 N.pl3   
  18 C18           -8.2384     5.1205    -1.4523 C.2     
  19 C19           -6.9288     4.9956    -1.1391 C.2     
  20 P20          -11.0707     3.2050    -0.6362 P.3     
  21 O21          -10.9729     4.3406     0.3079 O.2     
  22 C22           -1.4875    -0.1782    -3.9619 C.ar    
  23 C23           -1.3757    -1.5555    -4.1458 C.ar    
  24 N24           -1.2443    -2.3589    -3.0912 N.ar    
  25 C25           -1.2144    -1.8516    -1.8780 C.ar    
  26 C26          -10.0898     3.5695    -2.1290 C.3     
  27 C27            1.1483     6.3772     1.6964 C.3     
  28 C28           -1.4035    -2.1246    -5.5106 C.2     
  29 N29           -1.2954    -3.4562    -5.6878 N.am    
  30 O30           -1.5238    -1.3912    -6.4725 O.2     
  31 C31           -1.2798    -4.3737    -6.8371 C.3     
  32 C32           -1.8321    -5.4623    -5.9064 C.3     
  33 C33           -1.1345    -4.6307    -4.8175 C.3     
  34 C34            0.1286     6.4742    -0.5825 C.3     
  35 O35          -10.5033     1.8723     0.0666 O.3     
  36 C36          -10.9626     1.4066     1.3371 C.3     
  37 C37          -11.4153    -0.0497     1.2132 C.3     
  38 C38           -9.8260     1.5023     2.3568 C.3     
  39 O39          -12.6110     2.9805    -1.0478 O.3     
  40 C40          -13.6575     2.8196    -0.0881 C.3     
  41 C41          -14.6135     4.0112    -0.1715 C.3     
  42 C42          -14.4246     1.5288    -0.3816 C.3     
  43 H43            0.5238     1.7815     0.2526 H       
  44 H44           -3.5780     1.2872    -0.8332 H       
  45 H45           -2.0528     5.1847     0.0982 H       
  46 H46           -0.8896     5.8692     1.2169 H       
  47 H47           -5.1819     2.1317    -1.1130 H       
  48 H48           -8.8045     6.0402    -1.4642 H       
  49 H49           -6.2626     5.7983    -0.8594 H       
  50 H50           -1.5945     0.4740    -4.8161 H       
  51 H51           -1.1075    -2.5030    -1.0232 H       
  52 H52          -10.5279     4.4189    -2.6532 H       
  53 H53          -10.0891     2.6989    -2.7848 H       
  54 H54            2.1364     6.2679     1.2496 H       
  55 H55            0.9292     7.4354     1.8394 H       
  56 H56            1.1269     5.8683     2.6600 H       
  57 H57           -1.9715    -4.0884    -7.6297 H       
  58 H58           -0.2775    -4.5875    -7.2083 H       
  59 H59           -2.9195    -5.4783    -5.8333 H       
  60 H60           -1.3939    -6.4481    -6.0624 H       
  61 H61           -0.0949    -4.9147    -4.6536 H       
  62 H62           -1.7046    -4.5632    -3.8909 H       
  63 H63           -0.6192     6.0344    -1.2424 H       
  64 H64           -0.0904     7.5324    -0.4395 H       
  65 H65            1.1168     6.3649    -1.0293 H       
  66 H66          -11.8003     2.0205     1.6680 H       
  67 H67          -10.5554    -0.6793     0.9847 H       
  68 H68          -11.8624    -0.3724     2.1534 H       
  69 H69          -12.1507    -0.1347     0.4131 H       
  70 H70          -10.1764     1.1470     3.3259 H       
  71 H71           -8.9884     0.8883     2.0259 H       
  72 H72           -9.5035     2.5397     2.4451 H       
  73 H73          -13.2281     2.7676     0.9124 H       
  74 H74          -15.0429     4.0633    -1.1720 H       
  75 H75          -15.4118     3.8885     0.5605 H       
  76 H76          -14.0670     4.9308     0.0377 H       
  77 H77          -13.7627     0.6737    -0.2450 H       
  78 H78          -15.2708     1.4459     0.3005 H       
  79 H79          -14.7870     1.5472    -1.4095 H       
@<TRIPOS>BOND
   1    1    2 ar
   2    1    7 1
   3    1    6 ar
   4    2    3 ar
   5    2   43 1
   6    3    4 ar
   7    3    9 1
   8    4    5 ar
   9    4   44 1
  10    5    6 ar
  11    5   12 1
  12    6   45 1
  13    7    8 1
  14    8   27 1
  15    8   34 1
  16    8   46 1
  17    9   10 1
  18   10   11 ar
  19   10   25 ar
  20   11   22 ar
  21   12   13 am
  22   12   14 2
  23   13   15 1
  24   13   47 1
  25   15   16 2
  26   15   19 1
  27   16   17 1
  28   17   18 1
  29   17   26 1
  30   18   19 2
  31   18   48 1
  32   19   49 1
  33   20   21 2
  34   20   35 1
  35   20   39 1
  36   20   26 1
  37   22   23 ar
  38   22   50 1
  39   23   24 ar
  40   23   28 1
  41   24   25 ar
  42   25   51 1
  43   26   52 1
  44   26   53 1
  45   27   54 1
  46   27   55 1
  47   27   56 1
  48   28   29 am
  49   28   30 2
  50   29   31 1
  51   29   33 1
  52   31   32 1
  53   31   57 1
  54   31   58 1
  55   32   33 1
  56   32   59 1
  57   32   60 1
  58   33   61 1
  59   33   62 1
  60   34   63 1
  61   34   64 1
  62   34   65 1
  63   35   36 1
  64   36   37 1
  65   36   38 1
  66   36   66 1
  67   37   67 1
  68   37   68 1
  69   37   69 1
  70   38   70 1
  71   38   71 1
  72   38   72 1
  73   39   40 1
  74   40   41 1
  75   40   42 1
  76   40   73 1
  77   41   74 1
  78   41   75 1
  79   41   76 1
  80   42   77 1
  81   42   78 1
  82   42   79 1

#	End of record

