#	Name: ASD01180130
#	Creating user name:	WinNT
#	Creation time:	15. 06. 2019 19:06

#	Modifying user name:	WinNT
#	Modification time:	15. 06. 2019 19:06

#	Program:	/corina/corina34_cracker 3.40 0067  02.08.2006

@<TRIPOS>MOLECULE
ASD01180130
  42   43    0    0    0
SMALL
NO_CHARGES


@<TRIPOS>ATOM
   1 C1            -0.0180     1.4730     0.0101 C.2     
   2 C2             0.0021    -0.0041     0.0020 C.ar    
   3 C3             1.2188    -0.6888    -0.0133 C.ar    
   4 C4             1.2303    -2.0682    -0.0203 C.ar    
   5 C5             0.0396    -2.7731    -0.0127 C.ar    
   6 C6            -1.1697    -2.1009     0.0020 C.ar    
   7 C7            -1.1956    -0.7217     0.0154 C.ar    
   8 O8             1.0256     2.0946     0.0035 O.2     
   9 O9            -1.1936     2.1307     0.0193 O.3     
  10 C10            0.0601    -4.2800    -0.0210 C.3     
  11 C11           -0.1699    -4.8009     1.3991 C.3     
  12 C12           -0.1673    -6.3354     1.5003 C.3     
  13 C13            0.6128    -6.1689     2.8150 C.3     
  14 C14            1.1030    -4.8204     2.2618 C.3     
  15 C15           -0.2841    -6.0363     4.0474 C.3     
  16 C16            1.7298    -7.1982     2.9994 C.3     
  17 N17           -1.0026    -4.7793    -0.9038 N.3     
  18 C18           -1.1373     3.5816     0.0269 C.3     
  19 C19           -2.5589     4.1471     0.0367 C.3     
  20 H20            2.1488    -0.1398    -0.0199 H       
  21 H21            2.1707    -2.5992    -0.0321 H       
  22 H22           -2.0953    -2.6572     0.0071 H       
  23 H23           -2.1401    -0.1983     0.0318 H       
  24 H24            1.0272    -4.6283    -0.3836 H       
  25 H25           -1.0237    -4.3325     1.8887 H       
  26 H26           -1.1599    -6.7659     1.6331 H       
  27 H27            0.4050    -6.8240     0.7118 H       
  28 H28            2.0227    -4.8949     1.6815 H       
  29 H29            1.1360    -4.0278     3.0093 H       
  30 H30           -0.9007    -6.9297     4.1459 H       
  31 H31            0.3353    -5.9223     4.9370 H       
  32 H32           -0.9260    -5.1622     3.9371 H       
  33 H33            2.4458    -7.1076     2.1826 H       
  34 H34            2.2360    -7.0190     3.9479 H       
  35 H35            1.3032    -8.2013     2.9991 H       
  36 H36           -0.9691    -5.7851    -0.9770 H       
  37 H37           -1.9098    -4.4697    -0.5886 H       
  38 H38           -0.6055     3.9199     0.9162 H       
  39 H39           -0.6140     3.9295    -0.8637 H       
  40 H40           -3.0907     3.8088    -0.8526 H       
  41 H41           -3.0822     3.7991     0.9273 H       
  42 H42           -2.5166     5.2362     0.0424 H       
@<TRIPOS>BOND
   1    1    2 1
   2    1    8 2
   3    1    9 1
   4    2    3 ar
   5    2    7 ar
   6    3    4 ar
   7    3   20 1
   8    4    5 ar
   9    4   21 1
  10    5    6 ar
  11    5   10 1
  12    6    7 ar
  13    6   22 1
  14    7   23 1
  15    9   18 1
  16   10   11 1
  17   10   17 1
  18   10   24 1
  19   11   12 1
  20   11   14 1
  21   11   25 1
  22   12   13 1
  23   12   26 1
  24   12   27 1
  25   13   14 1
  26   13   15 1
  27   13   16 1
  28   14   28 1
  29   14   29 1
  30   15   30 1
  31   15   31 1
  32   15   32 1
  33   16   33 1
  34   16   34 1
  35   16   35 1
  36   17   36 1
  37   17   37 1
  38   18   19 1
  39   18   38 1
  40   18   39 1
  41   19   40 1
  42   19   41 1
  43   19   42 1

#	End of record

