#	Name: ASD01208660
#	Creating user name:	WinNT
#	Creation time:	15. 06. 2019 19:10

#	Modifying user name:	WinNT
#	Modification time:	15. 06. 2019 19:10

#	Program:	/corina/corina34_cracker 3.40 0067  02.08.2006

@<TRIPOS>MOLECULE
ASD01208660
  66   69    0    0    0
SMALL
NO_CHARGES


@<TRIPOS>ATOM
   1 C1             2.2128    -1.2407     4.5758 C.ar    
   2 C2             3.2967    -0.3745     4.4291 C.ar    
   3 C3             3.7384    -0.0582     3.1573 C.ar    
   4 C4             3.0792    -0.6206     2.0671 C.ar    
   5 C5             2.0040    -1.4775     2.2903 C.ar    
   6 N6             1.6092    -1.7576     3.5113 N.ar    
   7 C7             1.7349    -1.5915     5.9298 C.2     
   8 O8             2.2853    -1.1263     6.9075 O.2     
   9 O9             0.6889    -2.4271     6.0794 O.3     
  10 O10            3.4795    -0.3368     0.8020 O.3     
  11 C11            4.5493     0.4854     0.6406 C.ar    
  12 C12            5.8318    -0.0021     0.8331 C.ar    
  13 C13            6.9293     0.8429     0.6668 C.ar    
  14 C14            6.7300     2.1765     0.3069 C.ar    
  15 C15            5.4448     2.6557     0.1164 C.ar    
  16 C16            4.3561     1.8106     0.2777 C.ar    
  17 O17            5.2498     3.9542    -0.2341 O.3     
  18 C18            3.9059     4.3590    -0.5024 C.3     
  19 C19            3.9154     5.5821    -1.4215 C.3     
  20 C20            3.2081     4.7142     0.8121 C.3     
  21 O21            4.5136     6.6860    -0.7391 O.3     
  22 C22            4.5724     7.8854    -1.5137 C.3     
  23 N23            8.6275    -0.9488     1.2233 N.pl3   
  24 C24            8.2994     0.3273     0.8715 C.2     
  25 C25            9.4632     1.0543     0.7390 C.2     
  26 C26           10.5288     0.2011     1.0167 C.2     
  27 C27            9.9988    -1.0392     1.3160 C.2     
  28 C28           10.7606    -2.2383     1.6693 C.2     
  29 O29           11.9752    -2.1946     1.7189 O.2     
  30 O30           10.1155    -3.3919     1.9400 O.3     
  31 C31           10.9219    -4.5224     2.2776 C.3     
  32 C32           10.0343    -5.7105     2.5452 C.ar    
  33 C33            9.6854    -6.5594     1.5114 C.ar    
  34 C34            8.8713    -7.6492     1.7569 C.ar    
  35 C35            8.4064    -7.8905     3.0362 C.ar    
  36 C36            8.7561    -7.0422     4.0701 C.ar    
  37 C37            9.5738    -5.9548     3.8255 C.ar    
  38 C38            0.2741    -2.7273     7.4381 C.3     
  39 H39            3.7842     0.0438     5.2973 H       
  40 H40            4.5748     0.6097     3.0129 H       
  41 H41            1.4883    -1.9166     1.4490 H       
  42 H42            5.9816    -1.0347     1.1119 H       
  43 H43            7.5770     2.8340     0.1774 H       
  44 H44            3.3553     2.1864     0.1241 H       
  45 H45            3.3710     3.5432    -0.9887 H       
  46 H46            4.4891     5.3566    -2.3204 H       
  47 H47            2.8923     5.8370    -1.6978 H       
  48 H48            3.2013     3.8428     1.4669 H       
  49 H49            3.7430     5.5300     1.2985 H       
  50 H50            2.1830     5.0229     0.6074 H       
  51 H51            5.0394     8.6753    -0.9255 H       
  52 H52            5.1597     7.7077    -2.4146 H       
  53 H53            3.5629     8.1880    -1.7920 H       
  54 H54            8.0002    -1.6707     1.3852 H       
  55 H55            9.5357     2.0973     0.4683 H       
  56 H56           11.5768     0.4613     1.0005 H       
  57 H57           11.5936    -4.7497     1.4498 H       
  58 H58           11.5071    -4.2979     3.1693 H       
  59 H59           10.0486    -6.3708     0.5119 H       
  60 H60            8.5981    -8.3120     0.9491 H       
  61 H61            7.7698    -8.7416     3.2278 H       
  62 H62            8.3927    -7.2306     5.0695 H       
  63 H63            9.8500    -5.2942     4.6339 H       
  64 H64           -0.5757    -3.4096     7.4162 H       
  65 H65            1.1001    -3.1928     7.9758 H       
  66 H66           -0.0136    -1.8047     7.9423 H       
@<TRIPOS>BOND
   1    1    2 ar
   2    1    6 ar
   3    1    7 1
   4    2    3 ar
   5    2   39 1
   6    3    4 ar
   7    3   40 1
   8    4    5 ar
   9    4   10 1
  10    5    6 ar
  11    5   41 1
  12    7    8 2
  13    7    9 1
  14    9   38 1
  15   10   11 1
  16   11   12 ar
  17   11   16 ar
  18   12   13 ar
  19   12   42 1
  20   13   14 ar
  21   13   24 1
  22   14   15 ar
  23   14   43 1
  24   15   16 ar
  25   15   17 1
  26   16   44 1
  27   17   18 1
  28   18   19 1
  29   18   20 1
  30   18   45 1
  31   19   21 1
  32   19   46 1
  33   19   47 1
  34   20   48 1
  35   20   49 1
  36   20   50 1
  37   21   22 1
  38   22   51 1
  39   22   52 1
  40   22   53 1
  41   23   24 1
  42   23   27 1
  43   23   54 1
  44   24   25 2
  45   25   26 1
  46   25   55 1
  47   26   27 2
  48   26   56 1
  49   27   28 1
  50   28   29 2
  51   28   30 1
  52   30   31 1
  53   31   32 1
  54   31   57 1
  55   31   58 1
  56   32   33 ar
  57   32   37 ar
  58   33   34 ar
  59   33   59 1
  60   34   35 ar
  61   34   60 1
  62   35   36 ar
  63   35   61 1
  64   36   37 ar
  65   36   62 1
  66   37   63 1
  67   38   64 1
  68   38   65 1
  69   38   66 1

#	End of record

