#	Name: ASD03740277
#	Creating user name:	WinNT
#	Creation time:	15. 06. 2019 20:47

#	Modifying user name:	WinNT
#	Modification time:	15. 06. 2019 20:47

#	Program:	/corina/corina34_cracker 3.40 0067  02.08.2006

@<TRIPOS>MOLECULE
ASD03740277
  69   73    0    0    0
SMALL
NO_CHARGES


@<TRIPOS>ATOM
   1 C1            -0.5083     1.8566     0.7436 C.3     
   2 N2             0.1529     0.5781     1.0313 N.am    
   3 C3             1.4744     0.7426     0.8431 C.2     
   4 C4             1.7597     2.1180     0.4266 C.2     
   5 C5             0.5928     2.8167     0.3560 C.2     
   6 C6            -0.5100    -0.6594     1.4501 C.3     
   7 C7            -0.4639    -0.7703     2.9523 C.ar    
   8 C8            -1.4473    -0.1743     3.7193 C.ar    
   9 C9            -1.4063    -0.2758     5.0972 C.ar    
  10 C10           -0.3798    -0.9747     5.7090 C.ar    
  11 C11            0.6049    -1.5714     4.9396 C.ar    
  12 C12            0.5589    -1.4731     3.5621 C.ar    
  13 O13            0.4485     4.1075     0.0090 O.3     
  14 O14            2.3126    -0.1258     0.9967 O.2     
  15 C15            3.0997     2.6606     0.1308 C.2     
  16 S16            4.9535     3.6830    -0.9686 S.o2    
  17 N17            3.3547     3.1957    -1.0234 N.am    
  18 C18            5.3608     3.1713     0.6777 C.ar    
  19 C19            4.1679     2.6093     1.1424 C.ar    
  20 C20            4.1643     2.0983     2.4490 C.ar    
  21 C21            5.3004     2.1685     3.2187 C.ar    
  22 O22            5.6836     2.8624    -1.8702 O.2     
  23 O23            4.9703     5.1037    -0.9893 O.2     
  24 C24           -1.4949     1.6910    -0.4140 C.3     
  25 C25           -2.6454     0.7818     0.0226 C.3     
  26 C26           -2.0496     3.0605    -0.8112 C.3     
  27 C27           -0.7763     1.0651    -1.6109 C.3     
  28 C28           -2.4783     0.3746     5.9331 C.3     
  29 C29            6.4968     3.2346     1.4445 C.ar    
  30 C30            6.4720     2.7383     2.7335 C.ar    
  31 C31            7.6601     2.7981     3.6554 C.3     
  32 C32            8.9550     2.9792     2.8650 C.3     
  33 N33            8.7421     4.0603     1.8887 N.am    
  34 C34            7.7417     3.8351     0.8404 C.3     
  35 S35            9.5984     5.4753     1.9713 S.o2    
  36 O36            8.7539     6.4329     1.3476 O.2     
  37 O37            9.9506     5.5922     3.3431 O.2     
  38 C38           11.0729     5.1718     0.9593 C.3     
  39 F39           -0.3385    -1.0741     7.0557 F       
  40 H40           -1.0272     2.2190     1.6311 H       
  41 H41           -1.5482    -0.6456     1.1185 H       
  42 H42            0.0017    -1.5137     1.0069 H       
  43 H43           -2.2478     0.3712     3.2418 H       
  44 H44            1.4063    -2.1166     5.4158 H       
  45 H45            1.3245    -1.9419     2.9616 H       
  46 H46            1.2431     4.5751    -0.2827 H       
  47 H47            3.2676     1.6497     2.8504 H       
  48 H48            5.2827     1.7723     4.2233 H       
  49 H49           -2.8449     0.9324     1.0836 H       
  50 H50           -3.5387     1.0244    -0.5530 H       
  51 H51           -2.3723    -0.2589    -0.1517 H       
  52 H52           -1.2299     3.7082    -1.1222 H       
  53 H53           -2.7525     2.9425    -1.6358 H       
  54 H54           -2.5615     3.5064     0.0416 H       
  55 H55           -0.3811     0.0895    -1.3280 H       
  56 H56           -1.4792     0.9472    -2.4356 H       
  57 H57            0.0434     1.7128    -1.9220 H       
  58 H58           -3.2957    -0.3297     6.0879 H       
  59 H59           -2.0611     0.6646     6.8975 H       
  60 H60           -2.8535     1.2593     5.4187 H       
  61 H61            7.5391     3.6362     4.3418 H       
  62 H62            7.7162     1.8723     4.2279 H       
  63 H63            9.7657     3.2482     3.5422 H       
  64 H64            9.2010     2.0543     2.3433 H       
  65 H65            8.1472     3.1532     0.0928 H       
  66 H66            7.4930     4.7847     0.3667 H       
  67 H67           10.7711     4.9379    -0.0616 H       
  68 H68           11.7018     6.0622     0.9572 H       
  69 H69           11.6320     4.3331     1.3740 H       
@<TRIPOS>BOND
   1    1    2 1
   2    1    5 1
   3    1   24 1
   4    1   40 1
   5    2    3 am
   6    2    6 1
   7    3    4 1
   8    3   14 2
   9    4    5 2
  10    4   15 1
  11    5   13 1
  12    6    7 1
  13    6   41 1
  14    6   42 1
  15    7    8 ar
  16    7   12 ar
  17    8    9 ar
  18    8   43 1
  19    9   10 ar
  20    9   28 1
  21   10   11 ar
  22   10   39 1
  23   11   12 ar
  24   11   44 1
  25   12   45 1
  26   13   46 1
  27   15   17 2
  28   15   19 1
  29   16   17 am
  30   16   18 1
  31   16   22 2
  32   16   23 2
  33   18   19 ar
  34   18   29 ar
  35   19   20 ar
  36   20   21 ar
  37   20   47 1
  38   21   30 ar
  39   21   48 1
  40   24   25 1
  41   24   26 1
  42   24   27 1
  43   25   49 1
  44   25   50 1
  45   25   51 1
  46   26   52 1
  47   26   53 1
  48   26   54 1
  49   27   55 1
  50   27   56 1
  51   27   57 1
  52   28   58 1
  53   28   59 1
  54   28   60 1
  55   29   30 ar
  56   29   34 1
  57   30   31 1
  58   31   32 1
  59   31   61 1
  60   31   62 1
  61   32   33 1
  62   32   63 1
  63   32   64 1
  64   33   34 1
  65   33   35 am
  66   34   65 1
  67   34   66 1
  68   35   36 2
  69   35   37 2
  70   35   38 1
  71   38   67 1
  72   38   68 1
  73   38   69 1

#	End of record

