#	Name: ASD09116367
#	Creating user name:	WinNT
#	Creation time:	15. 06. 2019 21:21

#	Modifying user name:	WinNT
#	Modification time:	15. 06. 2019 21:21

#	Program:	/corina/corina34_cracker 3.40 0067  02.08.2006

@<TRIPOS>MOLECULE
ASD09116367
  65   71    0    0    0
SMALL
NO_CHARGES


@<TRIPOS>ATOM
   1 N1            -0.0297     1.4183     0.1451 N.2     
   2 N2            -0.0209     0.0193     0.2661 N.pl3   
   3 C3             1.2223     1.8078     0.1158 C.2     
   4 N4             2.0154     0.7342     0.2115 N.2     
   5 C5             1.2801    -0.3531     0.3029 C.2     
   6 N6             1.7524    -1.6468     0.4166 N.pl3   
   7 C7            -1.1336    -0.8210     0.3356 C.ar    
   8 N8             1.6572     3.1285     0.0026 N.pl3   
   9 C9             3.0192     3.4261     0.0967 C.ar    
  10 C10            3.5409     4.5215    -0.5800 C.ar    
  11 C11            3.8537     2.6307     0.8719 C.ar    
  12 C12            5.1992     2.9279     0.9631 C.ar    
  13 C13            5.7162     4.0160     0.2839 C.ar    
  14 C14            4.8874     4.8130    -0.4844 C.ar    
  15 N15           -1.0320    -2.0870    -0.0407 N.ar    
  16 N16           -2.0278    -2.8993    -0.0059 N.ar    
  17 C17           -3.2233    -2.5139     0.4106 C.ar    
  18 C18           -3.4198    -1.2008     0.8476 C.ar    
  19 C19           -2.3529    -0.3282     0.8075 C.ar    
  20 C20           -4.3852    -3.4327     0.4007 C.ar    
  21 C21           -5.5818    -3.0008    -0.1735 C.ar    
  22 C22           -5.6442    -1.6414    -0.8143 C.3     
  23 C23           -5.7427    -0.5359     0.2334 C.3     
  24 C24           -4.7617    -0.7847     1.3760 C.3     
  25 C25           -4.2988    -4.7050     0.9548 C.ar    
  26 C26           -5.4073    -5.5295     0.9502 C.ar    
  27 C27           -6.5971    -5.0899     0.3989 C.ar    
  28 C28           -6.6849    -3.8272    -0.1613 C.ar    
  29 C29            7.1849     4.3375     0.3862 C.3     
  30 C30            7.9453     3.6074    -0.7227 C.3     
  31 C31            9.4024     4.0086    -0.7183 C.ar    
  32 C32            7.9726     2.1176    -0.4549 C.2     
  33 N33            9.2619     1.7628    -0.3240 N.am    
  34 C34           10.1266     2.8492    -0.4731 C.ar    
  35 C35           11.5169     2.9213    -0.4128 C.ar    
  36 C36           12.1568     4.1296    -0.5950 C.ar    
  37 C37           11.4245     5.2794    -0.8394 C.ar    
  38 C38           10.0415     5.2146    -0.9001 C.ar    
  39 O39            7.0112     1.3825    -0.3737 O.2     
  40 F40           12.0562     6.4603    -1.0175 F       
  41 H41            2.7077    -1.8146     0.4341 H       
  42 H42            1.1288    -2.3871     0.4788 H       
  43 H43            1.0141     3.8402    -0.1414 H       
  44 H44            2.8943     5.1441    -1.1805 H       
  45 H45            3.4506     1.7810     1.4029 H       
  46 H46            5.8485     2.3101     1.5658 H       
  47 H47            5.2943     5.6620    -1.0136 H       
  48 H48           -2.4579     0.6999     1.1211 H       
  49 H49           -4.7458    -1.4873    -1.4119 H       
  50 H50           -6.5169    -1.5940    -1.4657 H       
  51 H51           -5.5144     0.4222    -0.2333 H       
  52 H52           -6.7572    -0.5078     0.6312 H       
  53 H53           -5.1534    -1.5724     2.0196 H       
  54 H54           -4.6499     0.1301     1.9580 H       
  55 H55           -3.3697    -5.0472     1.3862 H       
  56 H56           -5.3446    -6.5193     1.3777 H       
  57 H57           -7.4629    -5.7355     0.4058 H       
  58 H58           -7.6172    -3.4898    -0.5894 H       
  59 H59            7.3299     5.4125     0.2791 H       
  60 H60            7.5606     4.0152     1.3573 H       
  61 H61            7.4951     3.8148    -1.6935 H       
  62 H62            9.5580     0.8563    -0.1464 H       
  63 H63           12.0949     2.0290    -0.2227 H       
  64 H64           13.2346     4.1792    -0.5472 H       
  65 H65            9.4660     6.1083    -1.0908 H       
@<TRIPOS>BOND
   1    1    2 1
   2    1    3 2
   3    2    7 1
   4    2    5 1
   5    3    4 1
   6    3    8 1
   7    4    5 2
   8    5    6 1
   9    6   41 1
  10    6   42 1
  11    7   15 ar
  12    7   19 ar
  13    8    9 1
  14    8   43 1
  15    9   10 ar
  16    9   11 ar
  17   10   14 ar
  18   10   44 1
  19   11   12 ar
  20   11   45 1
  21   12   13 ar
  22   12   46 1
  23   13   14 ar
  24   13   29 1
  25   14   47 1
  26   15   16 ar
  27   16   17 ar
  28   17   18 ar
  29   17   20 1
  30   18   19 ar
  31   18   24 1
  32   19   48 1
  33   20   21 ar
  34   20   25 ar
  35   21   22 1
  36   21   28 ar
  37   22   23 1
  38   22   49 1
  39   22   50 1
  40   23   24 1
  41   23   51 1
  42   23   52 1
  43   24   53 1
  44   24   54 1
  45   25   26 ar
  46   25   55 1
  47   26   27 ar
  48   26   56 1
  49   27   28 ar
  50   27   57 1
  51   28   58 1
  52   29   30 1
  53   29   59 1
  54   29   60 1
  55   30   31 1
  56   30   32 1
  57   30   61 1
  58   31   34 ar
  59   31   38 ar
  60   32   33 am
  61   32   39 2
  62   33   34 1
  63   33   62 1
  64   34   35 ar
  65   35   36 ar
  66   35   63 1
  67   36   37 ar
  68   36   64 1
  69   37   38 ar
  70   37   40 1
  71   38   65 1

#	End of record

