#	Name: ASD05430135
#	Creating user name:	WinNT
#	Creation time:	15. 06. 2019 20:59

#	Modifying user name:	WinNT
#	Modification time:	15. 06. 2019 20:59

#	Program:	/corina/corina34_cracker 3.40 0067  02.08.2006

@<TRIPOS>MOLECULE
ASD05430135
  69   74    0    0    0
SMALL
NO_CHARGES


@<TRIPOS>ATOM
   1 C1             0.0696     1.6067    -0.7698 C.ar    
   2 C2            -0.0986     0.3741    -0.1397 C.ar    
   3 C3             0.9431    -0.1848     0.5894 C.ar    
   4 C4             2.1476     0.4761     0.6940 C.ar    
   5 C5             2.3235     1.7128     0.0648 C.ar    
   6 C6             1.2751     2.2752    -0.6695 C.ar    
   7 C7             4.7731     0.2407    -0.1094 C.3     
   8 C8             4.7626     1.7264     0.1668 C.2     
   9 C9             3.6096     2.4205     0.1754 C.2     
  10 C10            6.1636    -0.2017    -0.5688 C.3     
  11 C11            6.9490     0.8944    -1.2963 C.3     
  12 N12            7.1171     2.0333    -0.3945 N.pl3   
  13 C13            6.0503     2.3933     0.4269 C.2     
  14 C14            8.2165     4.0461    -1.1902 C.ar    
  15 C15            9.2683     4.9379    -1.2886 C.ar    
  16 C16            9.1459     6.0675    -2.0753 C.ar    
  17 C17            7.9693     6.3059    -2.7651 C.ar    
  18 C18            6.9166     5.4121    -2.6658 C.ar    
  19 C19            7.0413     4.2832    -1.8785 C.ar    
  20 N20           -1.3218    -0.3021    -0.2421 N.pl3   
  21 C21           -1.5005    -1.6141    -0.5974 C.2     
  22 C22           -2.8262    -1.8489    -0.5687 C.2     
  23 N23           -3.4446    -0.7152    -0.2064 N.2     
  24 C24           -2.5539     0.2170    -0.0022 C.2     
  25 C25           -3.4988    -3.1589    -0.8890 C.3     
  26 N26            6.2049     3.2561     1.3766 N.2     
  27 C27           -0.7082     3.4134    -2.1060 C.3     
  28 O28           -0.9503     2.1482    -1.4873 O.3     
  29 C29            8.3535     2.8115    -0.3370 C.3     
  30 C30            8.6016     3.2159     1.1204 C.3     
  31 O31            7.4484     3.8587     1.6531 O.3     
  32 F32            7.8484     7.4101    -3.5341 F       
  33 C33            6.9742    -0.8715     0.5446 C.3     
  34 S34            7.7847    -1.9307    -0.6850 S.3     
  35 C35            6.1419    -1.5257    -1.3390 C.3     
  36 C36            9.5213     1.9619    -0.8421 C.3     
  37 O37           10.7112     2.7529    -0.8647 O.3     
  38 C38            9.7221     0.7653     0.0899 C.3     
  39 H39            0.8086    -1.1397     1.0758 H       
  40 H40            2.9556     0.0395     1.2622 H       
  41 H41            1.4069     3.2297    -1.1572 H       
  42 H42            4.5049    -0.2975     0.7997 H       
  43 H43            4.0459     0.0132    -0.8889 H       
  44 H44            3.6279     3.4968     0.2635 H       
  45 H45            7.9272     0.5112    -1.5867 H       
  46 H46            6.4000     1.2093    -2.1838 H       
  47 H47           10.1859     4.7518    -0.7502 H       
  48 H48            9.9676     6.7642    -2.1518 H       
  49 H49            5.9983     5.5971    -3.2033 H       
  50 H50            6.2202     3.5858    -1.8009 H       
  51 H51           -0.7266    -2.3232    -0.8517 H       
  52 H52           -2.7623     1.2329     0.2992 H       
  53 H53           -3.5904    -3.7523     0.0207 H       
  54 H54           -4.4904    -2.9675    -1.2992 H       
  55 H55           -2.9022    -3.7044    -1.6201 H       
  56 H56           -0.4641     4.1509    -1.3414 H       
  57 H57            0.1249     3.3234    -2.8031 H       
  58 H58           -1.6006     3.7309    -2.6453 H       
  59 H59            8.8239     2.3262     1.7095 H       
  60 H60            9.4498     3.8989     1.1666 H       
  61 H61            7.6629    -0.1892     1.0429 H       
  62 H62            6.3561    -1.4284     1.2488 H       
  63 H63            5.3641    -2.2080    -0.9961 H       
  64 H64            6.1324    -1.3919    -2.4207 H       
  65 H65            9.3027     1.6056    -1.8488 H       
  66 H66           11.0141     3.0328     0.0100 H       
  67 H67            8.8683     0.0928     0.0069 H       
  68 H68           10.6315     0.2342    -0.1912 H       
  69 H69            9.8094     1.1163     1.1182 H       
@<TRIPOS>BOND
   1    1    2 ar
   2    1    6 ar
   3    1   28 1
   4    2    3 ar
   5    2   20 1
   6    3    4 ar
   7    3   39 1
   8    4    5 ar
   9    4   40 1
  10    5    6 ar
  11    5    9 1
  12    6   41 1
  13    7    8 1
  14    7   10 1
  15    7   42 1
  16    7   43 1
  17    8    9 2
  18    8   13 1
  19    9   44 1
  20   10   11 1
  21   10   33 1
  22   10   35 1
  23   11   12 1
  24   11   45 1
  25   11   46 1
  26   12   13 1
  27   12   29 1
  28   13   26 2
  29   14   15 ar
  30   14   19 ar
  31   14   29 1
  32   15   16 ar
  33   15   47 1
  34   16   17 ar
  35   16   48 1
  36   17   18 ar
  37   17   32 1
  38   18   19 ar
  39   18   49 1
  40   19   50 1
  41   20   21 1
  42   20   24 1
  43   21   22 2
  44   21   51 1
  45   22   23 1
  46   22   25 1
  47   23   24 2
  48   24   52 1
  49   25   53 1
  50   25   54 1
  51   25   55 1
  52   26   31 1
  53   27   28 1
  54   27   56 1
  55   27   57 1
  56   27   58 1
  57   29   30 1
  58   29   36 1
  59   30   31 1
  60   30   59 1
  61   30   60 1
  62   33   34 1
  63   33   61 1
  64   33   62 1
  65   34   35 1
  66   35   63 1
  67   35   64 1
  68   36   37 1
  69   36   38 1
  70   36   65 1
  71   37   66 1
  72   38   67 1
  73   38   68 1
  74   38   69 1

#	End of record

