#	Name: ASD00960255
#	Creating user name:	WinNT
#	Creation time:	15. 06. 2019 18:53

#	Modifying user name:	WinNT
#	Modification time:	15. 06. 2019 18:53

#	Program:	/corina/corina34_cracker 3.40 0067  02.08.2006

@<TRIPOS>MOLECULE
ASD00960255
  51   54    0    0    0
SMALL
NO_CHARGES


@<TRIPOS>ATOM
   1 C1             0.0593     1.2974     0.0035 C.2     
   2 C2             0.1083    -0.0861    -0.0002 C.2     
   3 N3             1.3499     1.7541    -0.0054 N.pl3   
   4 C4             2.1930     0.6725    -0.0002 C.2     
   5 C5             1.4618    -0.4536    -0.0042 C.2     
   6 N6             1.8406     3.0683    -0.0056 N.2     
   7 C7             3.1163     3.2535    -0.2271 C.2     
   8 N8             3.9661     2.1935    -0.5236 N.pl3   
   9 C9             3.6944     0.8506     0.0201 C.3     
  10 N10            4.1938     0.7554     1.3983 N.3     
  11 C11            3.6676     4.6221    -0.1611 C.2     
  12 N12            2.8435     5.6725     0.0234 N.am    
  13 O13            4.8649     4.8012    -0.2732 O.2     
  14 C14            3.3984     7.0168     0.1999 C.3     
  15 C15            2.2842     7.9837     0.5079 C.ar    
  16 C16            1.9817     8.2941     1.8206 C.ar    
  17 C17            0.9597     9.1810     2.1032 C.ar    
  18 C18            0.2405     9.7577     1.0731 C.ar    
  19 C19            0.5437     9.4480    -0.2396 C.ar    
  20 C20            1.5685     8.5645    -0.5223 C.ar    
  21 C21           -1.1505     2.1210     0.0094 C.2     
  22 O22           -1.0625     3.3304     0.1045 O.2     
  23 O23           -2.3633     1.5387    -0.0907 O.3     
  24 C24           -3.5040     2.3903     0.0335 C.3     
  25 C25           -4.7584     1.5553     0.0183 C.ar    
  26 C26           -5.3378     1.1567     1.2084 C.ar    
  27 C27           -6.4884     0.3906     1.1945 C.ar    
  28 C28           -7.0598     0.0235    -0.0095 C.ar    
  29 C29           -6.4809     0.4229    -1.1996 C.ar    
  30 C30           -5.3328     1.1926    -1.1856 C.ar    
  31 H31           -0.7379    -0.7572     0.0003 H       
  32 H32            1.8472    -1.4625    -0.0095 H       
  33 H33            4.7402     2.3383    -1.0900 H       
  34 H34            4.1688     0.0926    -0.6032 H       
  35 H35            5.1888     0.9185     1.4345 H       
  36 H36            3.7007     1.3920     2.0064 H       
  37 H37            1.8829     5.5383     0.0394 H       
  38 H38            4.1119     7.0101     1.0239 H       
  39 H39            3.9036     7.3244    -0.7157 H       
  40 H40            2.5436     7.8435     2.6253 H       
  41 H41            0.7228     9.4229     3.1287 H       
  42 H42           -0.5584    10.4501     1.2939 H       
  43 H43           -0.0184     9.8984    -1.0443 H       
  44 H44            1.8054     8.3225    -1.5478 H       
  45 H45           -3.4457     2.9413     0.9722 H       
  46 H46           -3.5253     3.0931    -0.7994 H       
  47 H47           -4.8914     1.4434     2.1491 H       
  48 H48           -6.9407     0.0786     2.1243 H       
  49 H49           -7.9584    -0.5756    -0.0204 H       
  50 H50           -6.9272     0.1358    -2.1402 H       
  51 H51           -4.8826     1.5078    -2.1153 H       
@<TRIPOS>BOND
   1    1    2 2
   2    1    3 1
   3    1   21 1
   4    2    5 1
   5    2   31 1
   6    3    4 1
   7    3    6 1
   8    4    5 2
   9    4    9 1
  10    5   32 1
  11    6    7 2
  12    7    8 1
  13    7   11 1
  14    8    9 1
  15    8   33 1
  16    9   10 1
  17    9   34 1
  18   10   35 1
  19   10   36 1
  20   11   12 am
  21   11   13 2
  22   12   14 1
  23   12   37 1
  24   14   15 1
  25   14   38 1
  26   14   39 1
  27   15   16 ar
  28   15   20 ar
  29   16   17 ar
  30   16   40 1
  31   17   18 ar
  32   17   41 1
  33   18   19 ar
  34   18   42 1
  35   19   20 ar
  36   19   43 1
  37   20   44 1
  38   21   22 2
  39   21   23 1
  40   23   24 1
  41   24   25 1
  42   24   45 1
  43   24   46 1
  44   25   26 ar
  45   25   30 ar
  46   26   27 ar
  47   26   47 1
  48   27   28 ar
  49   27   48 1
  50   28   29 ar
  51   28   49 1
  52   29   30 ar
  53   29   50 1
  54   30   51 1

#	End of record

