#	Name: ASD01917077
#	Creating user name:	WinNT
#	Creation time:	15. 06. 2019 20:08

#	Modifying user name:	WinNT
#	Modification time:	15. 06. 2019 20:08

#	Program:	/corina/corina34_cracker 3.40 0067  02.08.2006

@<TRIPOS>MOLECULE
ASD01917077
  40   41    0    0    0
SMALL
NO_CHARGES


@<TRIPOS>ATOM
   1 C1            -0.0184     1.5028     0.0103 C.3     
   2 C2             0.0021    -0.0041     0.0020 C.2     
   3 N3             0.0221    -0.7751     1.0571 N.2     
   4 C4             0.0362    -2.0604     0.6790 C.2     
   5 N5             0.0250    -2.1134    -0.6350 N.2     
   6 N6            -0.0030    -0.7860    -1.0924 N.pl3   
   7 C7            -0.0246    -0.3402    -2.4878 C.3     
   8 C8            -1.4525    -0.2132    -2.9525 C.2     
   9 O9            -1.7172     0.1839    -4.2071 O.3     
  10 O10           -2.3591    -0.4688    -2.1958 O.2     
  11 C11           -3.1154     0.2839    -4.5858 C.3     
  12 C12            0.0604    -3.2302     1.5916 C.ar    
  13 C13            1.4170     2.0324    -0.0006 C.3     
  14 C14            0.0733    -4.5225     1.0700 C.ar    
  15 C15            0.0957    -5.6078     1.9206 C.ar    
  16 C16            0.1050    -5.4139     3.2953 C.ar    
  17 C17            0.0922    -4.1277     3.8177 C.ar    
  18 C18            0.0760    -3.0386     2.9719 C.ar    
  19 O19            0.1262    -6.4851     4.1309 O.3     
  20 C20            0.1347    -6.2133     5.5338 C.3     
  21 F21            1.2700    -5.4623     5.8565 F       
  22 F22           -1.0142    -5.4922     5.8761 F       
  23 C23            1.3963     3.5622     0.0079 C.3     
  24 H24           -0.5455     1.8639    -0.8728 H       
  25 H25           -0.5286     1.8543     0.9071 H       
  26 H26            0.4710     0.6273    -2.5678 H       
  27 H27            0.4966    -1.0679    -3.1098 H       
  28 H28           -3.1884     0.6141    -5.6220 H       
  29 H29           -3.5908    -0.6913    -4.4808 H       
  30 H30           -3.6164     1.0039    -3.9388 H       
  31 H31            1.9442     1.6713     0.8825 H       
  32 H32            1.9272     1.6808    -0.8974 H       
  33 H33            0.0653    -4.6739     0.0007 H       
  34 H34            0.1057    -6.6095     1.5170 H       
  35 H35            0.0994    -3.9800     4.8876 H       
  36 H36            0.0664    -2.0382     3.3789 H       
  37 H37            0.1517    -7.1531     6.0859 H       
  38 H38            0.8861     3.9137     0.9047 H       
  39 H39            2.4189     3.9395     0.0001 H       
  40 H40            0.8691     3.9233    -0.8752 H       
@<TRIPOS>BOND
   1    1    2 1
   2    1   13 1
   3    1   24 1
   4    1   25 1
   5    2    3 2
   6    2    6 1
   7    3    4 1
   8    4    5 2
   9    4   12 1
  10    5    6 1
  11    6    7 1
  12    7    8 1
  13    7   26 1
  14    7   27 1
  15    8    9 1
  16    8   10 2
  17    9   11 1
  18   11   28 1
  19   11   29 1
  20   11   30 1
  21   12   14 ar
  22   12   18 ar
  23   13   23 1
  24   13   31 1
  25   13   32 1
  26   14   15 ar
  27   14   33 1
  28   15   16 ar
  29   15   34 1
  30   16   17 ar
  31   16   19 1
  32   17   18 ar
  33   17   35 1
  34   18   36 1
  35   19   20 1
  36   20   21 1
  37   20   22 1
  38   20   37 1
  39   23   38 1
  40   23   39 1
  41   23   40 1

#	End of record

