#	Name: ASD01810126
#	Creating user name:	WinNT
#	Creation time:	15. 06. 2019 19:23

#	Modifying user name:	WinNT
#	Modification time:	15. 06. 2019 19:23

#	Program:	/corina/corina34_cracker 3.40 0067  02.08.2006

@<TRIPOS>MOLECULE
ASD01810126
  41   44    0    0    0
SMALL
NO_CHARGES


@<TRIPOS>ATOM
   1 C1             0.1034     1.4770     0.3876 C.ar    
   2 C2             0.0846     0.0898     0.3795 C.ar    
   3 C3             1.2532    -0.6296     0.2385 C.ar    
   4 C4             2.4695     0.0388     0.1021 C.ar    
   5 C5             2.4838     1.4435     0.1108 C.ar    
   6 C6             1.2938     2.1570     0.2544 C.ar    
   7 N7             3.6451    -0.6678    -0.0386 N.pl3   
   8 C8             4.8373    -0.0734    -0.1713 C.2     
   9 C9             4.9780     1.3000    -0.1770 C.2     
  10 C10            3.7767     2.1382    -0.0343 C.2     
  11 O11            3.8476     3.3547    -0.0335 O.2     
  12 C12            6.3049     1.9146    -0.3240 C.2     
  13 O13            6.4293     3.2569    -0.3280 O.3     
  14 O14            7.2903     1.2125    -0.4419 O.2     
  15 C15            3.5871    -2.1316    -0.0427 C.3     
  16 C16            3.4445    -2.6248    -1.4595 C.ar    
  17 C17            4.5654    -2.7663    -2.2569 C.ar    
  18 C18            4.4379    -3.2177    -3.5560 C.ar    
  19 C19            3.1828    -3.5298    -4.0610 C.ar    
  20 C20            2.0594    -3.3870    -3.2578 C.ar    
  21 C21            2.1938    -2.9402    -1.9578 C.ar    
  22 N22            3.0501    -3.9876    -5.3793 N.pl3   
  23 C23            1.8927    -4.3248    -5.9920 C.2     
  24 C24            2.1926    -4.7143    -7.2527 C.2     
  25 C25            3.5784    -4.6122    -7.4171 C.2     
  26 N26            4.0924    -4.1711    -6.2971 N.2     
  27 F27            1.2194    -1.9802     0.2329 F       
  28 H28           -0.8203     2.0264     0.4944 H       
  29 H29           -0.8549    -0.4324     0.4852 H       
  30 H30            1.3057     3.2369     0.2606 H       
  31 H31            5.7185    -0.6888    -0.2771 H       
  32 H32            7.3221     3.6147    -0.4274 H       
  33 H33            4.5030    -2.5327     0.3912 H       
  34 H34            2.7311    -2.4630     0.5452 H       
  35 H35            5.5414    -2.5234    -1.8636 H       
  36 H36            5.3136    -3.3273    -4.1786 H       
  37 H37            1.0817    -3.6287    -3.6480 H       
  38 H38            1.3203    -2.8290    -1.3325 H       
  39 H39            0.9063    -4.2902    -5.5536 H       
  40 H40            1.4869    -5.0455    -8.0002 H       
  41 H41            4.1286    -4.8516    -8.3150 H       
@<TRIPOS>BOND
   1    1    2 ar
   2    1    6 ar
   3    1   28 1
   4    2    3 ar
   5    2   29 1
   6    3    4 ar
   7    3   27 1
   8    4    5 ar
   9    4    7 1
  10    5    6 ar
  11    5   10 1
  12    6   30 1
  13    7    8 1
  14    7   15 1
  15    8    9 2
  16    8   31 1
  17    9   10 1
  18    9   12 1
  19   10   11 2
  20   12   13 1
  21   12   14 2
  22   13   32 1
  23   15   16 1
  24   15   33 1
  25   15   34 1
  26   16   17 ar
  27   16   21 ar
  28   17   18 ar
  29   17   35 1
  30   18   19 ar
  31   18   36 1
  32   19   20 ar
  33   19   22 1
  34   20   21 ar
  35   20   37 1
  36   21   38 1
  37   22   23 1
  38   22   26 1
  39   23   24 2
  40   23   39 1
  41   24   25 1
  42   24   40 1
  43   25   26 2
  44   25   41 1

#	End of record

