#	Name: ASD07300356
#	Creating user name:	WinNT
#	Creation time:	15. 06. 2019 21:09

#	Modifying user name:	WinNT
#	Modification time:	15. 06. 2019 21:09

#	Program:	/corina/corina34_cracker 3.40 0067  02.08.2006

@<TRIPOS>MOLECULE
ASD07300356
  44   48    0    0    0
SMALL
NO_CHARGES


@<TRIPOS>ATOM
   1 C1            -0.8604     0.9893    -0.1290 C.ar    
   2 C2            -1.0235    -0.3814    -0.3522 C.ar    
   3 C3             0.0618    -1.2300    -0.1929 C.ar    
   4 C4             1.2769    -0.6773     0.1853 C.ar    
   5 C5             1.3662     0.6868     0.3891 C.ar    
   6 N6             0.3177     1.4712     0.2309 N.ar    
   7 C7            -2.9743     0.6165    -0.7002 C.2     
   8 N8            -2.0988     1.5791    -0.3558 N.am    
   9 N9            -2.3534    -0.5786    -0.7119 N.am    
  10 O10           -4.1477     0.7989    -0.9653 O.2     
  11 C11           -2.3875     2.9472    -0.2439 C.ar    
  12 C12           -3.6717     3.4090    -0.4991 C.ar    
  13 C13           -3.9553     4.7558    -0.3889 C.ar    
  14 C14           -2.9572     5.6476    -0.0237 C.ar    
  15 C15           -1.6737     5.1866     0.2314 C.ar    
  16 C16           -1.3906     3.8391     0.1275 C.ar    
  17 O17           -3.2368     6.9738     0.0838 O.3     
  18 C18           -5.6362     9.6531     3.3623 C.ar    
  19 C19           -4.9931     8.6861     2.6096 C.ar    
  20 C20           -4.9087     7.3728     3.1121 C.ar    
  21 C21           -5.4846     7.1045     4.3593 C.ar    
  22 C22           -6.1006     8.1211     5.0330 C.ar    
  23 N23           -6.1612     9.3436     4.5325 N.ar    
  24 C24           -3.9127     7.3935     1.1772 C.2     
  25 N25           -4.3536     8.6673     1.3836 N.pl3   
  26 N26           -4.2408     6.6366     2.1947 N.2     
  27 C27           -2.9729    -1.8651    -1.0391 C.3     
  28 C28           -3.5364    -2.4984     0.2346 C.3     
  29 H29           -0.0363    -2.2927    -0.3585 H       
  30 H30            2.1441    -1.3068     0.3194 H       
  31 H31            2.3116     1.1182     0.6836 H       
  32 H32           -4.4485     2.7150    -0.7841 H       
  33 H33           -4.9543     5.1152    -0.5874 H       
  34 H34           -0.8970     5.8812     0.5153 H       
  35 H35           -0.3926     3.4797     0.3308 H       
  36 H36           -5.7051    10.6654     2.9924 H       
  37 H37           -5.4431     6.1113     4.7816 H       
  38 H38           -6.5477     7.9219     5.9958 H       
  39 H39           -4.2403     9.4198     0.7822 H       
  40 H40           -3.7801    -1.7082    -1.7546 H       
  41 H41           -2.2253    -2.5282    -1.4745 H       
  42 H42           -2.7293    -2.6554     0.9501 H       
  43 H43           -4.2841    -1.8354     0.6699 H       
  44 H44           -3.9974    -3.4557    -0.0089 H       
@<TRIPOS>BOND
   1    1    2 ar
   2    1    6 ar
   3    1    8 1
   4    2    3 ar
   5    2    9 1
   6    3    4 ar
   7    3   29 1
   8    4    5 ar
   9    4   30 1
  10    5    6 ar
  11    5   31 1
  12    7    8 am
  13    7    9 am
  14    7   10 2
  15    8   11 1
  16    9   27 1
  17   11   12 ar
  18   11   16 ar
  19   12   13 ar
  20   12   32 1
  21   13   14 ar
  22   13   33 1
  23   14   15 ar
  24   14   17 1
  25   15   16 ar
  26   15   34 1
  27   16   35 1
  28   17   24 1
  29   18   19 ar
  30   18   23 ar
  31   18   36 1
  32   19   20 ar
  33   19   25 1
  34   20   21 ar
  35   20   26 1
  36   21   22 ar
  37   21   37 1
  38   22   23 ar
  39   22   38 1
  40   24   25 1
  41   24   26 2
  42   25   39 1
  43   27   28 1
  44   27   40 1
  45   27   41 1
  46   28   42 1
  47   28   43 1
  48   28   44 1

#	End of record

