#	Name: ASD01882382
#	Creating user name:	WinNT
#	Creation time:	15. 06. 2019 19:44

#	Modifying user name:	WinNT
#	Modification time:	15. 06. 2019 19:44

#	Program:	/corina/corina34_cracker 3.40 0067  02.08.2006

@<TRIPOS>MOLECULE
ASD01882382
  50   54    0    0    0
SMALL
NO_CHARGES


@<TRIPOS>ATOM
   1 C1             1.1480     0.9983    -0.2588 C.2     
   2 C2             1.2889    -0.3534    -0.8028 C.2     
   3 C3             1.6251    -0.4876    -2.1556 C.2     
   4 C4             1.8129     0.6714    -2.9329 C.2     
   5 C5             1.6749     1.8985    -2.3966 C.2     
   6 N6             1.3482     2.0768    -1.0851 N.pl3   
   7 N7             0.8509     2.7614     0.8954 N.2     
   8 N8             0.8450     1.4749     0.9321 N.2     
   9 C9             1.1495     3.1795    -0.3057 C.2     
  10 C10            1.0892    -1.5051     0.0245 C.1     
  11 N11            0.9308    -2.4187     0.6808 N.1     
  12 C12            1.2535     4.6158    -0.7497 C.3     
  13 C13            0.3547     5.0654    -1.9034 C.3     
  14 C14            0.0563     5.5283    -0.4760 C.3     
  15 C15            2.6497     5.2351    -0.6592 C.3     
  16 F16            3.5579     4.4437    -1.3705 F       
  17 F17            2.6251     6.5226    -1.2060 F       
  18 F18            3.0426     5.3053     0.6817 F       
  19 N19            1.7712    -1.7409    -2.7201 N.pl3   
  20 C20            3.0703    -2.1762    -3.2506 C.3     
  21 C21            2.8812    -2.6404    -4.6982 C.3     
  22 C22            1.7908    -3.7131    -4.7474 C.3     
  23 C23            0.4686    -3.1220    -4.2531 C.3     
  24 C24            0.6317    -2.6654    -2.7954 C.3     
  25 C25            1.6258    -4.1966    -6.1652 C.ar    
  26 C26            1.8347    -5.5286    -6.4700 C.ar    
  27 C27            1.6833    -5.9721    -7.7705 C.ar    
  28 C28            1.3226    -5.0836    -8.7661 C.ar    
  29 C29            1.1127    -3.7517    -8.4612 C.ar    
  30 C30            1.2599    -3.3091    -7.1599 C.ar    
  31 H31            2.0723     0.5743    -3.9768 H       
  32 H32            1.8271     2.7654    -3.0225 H       
  33 H33            0.7579     5.8027    -2.5977 H       
  34 H34           -0.3118     4.3224    -2.3412 H       
  35 H35           -0.8065     5.0898     0.0253 H       
  36 H36            0.2632     6.5702    -0.2311 H       
  37 H37            3.7738    -1.3441    -3.2227 H       
  38 H38            3.4527    -3.0010    -2.6494 H       
  39 H39            2.5857    -1.7927    -5.3165 H       
  40 H40            3.8171    -3.0554    -5.0724 H       
  41 H41            2.0756    -4.5498    -4.1095 H       
  42 H42            0.1958    -2.2698    -4.8755 H       
  43 H43           -0.3127    -3.8799    -4.3104 H       
  44 H44            0.8193    -3.5293    -2.1578 H       
  45 H45           -0.2743    -2.1562    -2.4670 H       
  46 H46            2.1166    -6.2228    -5.6921 H       
  47 H47            1.8473    -7.0126    -8.0088 H       
  48 H48            1.2050    -5.4299    -9.7823 H       
  49 H49            0.8312    -3.0575    -9.2391 H       
  50 H50            1.0924    -2.2693    -6.9210 H       
@<TRIPOS>BOND
   1    1    2 1
   2    1    6 1
   3    1    8 2
   4    2    3 2
   5    2   10 1
   6    3    4 1
   7    3   19 1
   8    4    5 2
   9    4   31 1
  10    5    6 1
  11    5   32 1
  12    6    9 1
  13    7    8 1
  14    7    9 2
  15    9   12 1
  16   10   11 3
  17   12   13 1
  18   12   14 1
  19   12   15 1
  20   13   14 1
  21   13   33 1
  22   13   34 1
  23   14   35 1
  24   14   36 1
  25   15   16 1
  26   15   17 1
  27   15   18 1
  28   19   20 1
  29   19   24 1
  30   20   21 1
  31   20   37 1
  32   20   38 1
  33   21   22 1
  34   21   39 1
  35   21   40 1
  36   22   23 1
  37   22   25 1
  38   22   41 1
  39   23   24 1
  40   23   42 1
  41   23   43 1
  42   24   44 1
  43   24   45 1
  44   25   26 ar
  45   25   30 ar
  46   26   27 ar
  47   26   46 1
  48   27   28 ar
  49   27   47 1
  50   28   29 ar
  51   28   48 1
  52   29   30 ar
  53   29   49 1
  54   30   50 1

#	End of record

