#	Name: ASD01882719
#	Creating user name:	WinNT
#	Creation time:	15. 06. 2019 19:45

#	Modifying user name:	WinNT
#	Modification time:	15. 06. 2019 19:45

#	Program:	/corina/corina34_cracker 3.40 0067  02.08.2006

@<TRIPOS>MOLECULE
ASD01882719
  38   39    0    0    0
SMALL
NO_CHARGES


@<TRIPOS>ATOM
   1 N1            -0.0165     1.3692     0.0096 N.pl3   
   2 O2             1.1412    -0.7243    -0.0127 O.3     
   3 C3             0.0021    -0.0041     0.0020 C.2     
   4 N4            -1.0753    -0.7270     0.0089 N.2     
   5 C5            -0.6823    -2.1496     0.0076 C.3     
   6 C6             0.8153    -2.0697     0.3922 C.3     
   7 C7             1.6390    -3.0940    -0.3909 C.3     
   8 O8             3.0178    -2.9666    -0.0377 O.3     
   9 C9             3.8916    -3.8096    -0.6484 C.ar    
  10 C10            5.2454    -3.7409    -0.3525 C.ar    
  11 C11            6.1314    -4.5988    -0.9746 C.ar    
  12 C12            5.6702    -5.5252    -1.8919 C.ar    
  13 C13            4.3218    -5.5953    -2.1887 C.ar    
  14 C14            3.4307    -4.7439    -1.5642 C.ar    
  15 C15            7.6020    -4.5248    -0.6537 C.3     
  16 C16            7.8128    -4.7929     0.8378 C.3     
  17 C17            8.3561    -5.5748    -1.4722 C.3     
  18 C18            8.1303    -3.1315    -1.0011 C.3     
  19 H19            0.8168     1.8655     0.0043 H       
  20 H20           -0.8631     1.8427     0.0162 H       
  21 H21           -1.2463    -2.7101     0.7532 H       
  22 H22           -0.8071    -2.5872    -0.9829 H       
  23 H23            0.9511    -2.1991     1.4659 H       
  24 H24            1.2935    -4.0992    -0.1495 H       
  25 H25            1.5198    -2.9156    -1.4596 H       
  26 H26            5.6062    -3.0171     0.3632 H       
  27 H27            6.3646    -6.1948    -2.3774 H       
  28 H28            3.9641    -6.3194    -2.9057 H       
  29 H29            2.3768    -4.8022    -1.7929 H       
  30 H30            7.4364    -5.7855     1.0852 H       
  31 H31            8.8764    -4.7394     1.0698 H       
  32 H32            7.2756    -4.0449     1.4208 H       
  33 H33            8.2059    -5.3837    -2.5348 H       
  34 H34            9.4197    -5.5212    -1.2401 H       
  35 H35            7.9797    -6.5674    -1.2247 H       
  36 H36            7.5931    -2.3835    -0.4180 H       
  37 H37            9.1940    -3.0780    -0.7690 H       
  38 H38            7.9802    -2.9405    -2.0636 H       
@<TRIPOS>BOND
   1    1    3 1
   2    1   19 1
   3    1   20 1
   4    2    3 1
   5    2    6 1
   6    3    4 2
   7    4    5 1
   8    5    6 1
   9    5   21 1
  10    5   22 1
  11    6    7 1
  12    6   23 1
  13    7    8 1
  14    7   24 1
  15    7   25 1
  16    8    9 1
  17    9   10 ar
  18    9   14 ar
  19   10   11 ar
  20   10   26 1
  21   11   12 ar
  22   11   15 1
  23   12   13 ar
  24   12   27 1
  25   13   14 ar
  26   13   28 1
  27   14   29 1
  28   15   16 1
  29   15   18 1
  30   15   17 1
  31   16   30 1
  32   16   31 1
  33   16   32 1
  34   17   33 1
  35   17   34 1
  36   17   35 1
  37   18   36 1
  38   18   37 1
  39   18   38 1

#	End of record

