#	Name: ASD01811764
#	Creating user name:	WinNT
#	Creation time:	15. 06. 2019 19:27

#	Modifying user name:	WinNT
#	Modification time:	15. 06. 2019 19:27

#	Program:	/corina/corina34_cracker 3.40 0067  02.08.2006

@<TRIPOS>MOLECULE
ASD01811764
  55   59    0    0    0
SMALL
NO_CHARGES


@<TRIPOS>ATOM
   1 C1            -0.0650     1.4193     0.0286 C.ar    
   2 C2            -0.0004     0.0287     0.0170 C.ar    
   3 C3            -1.1696    -0.7224     0.0250 C.ar    
   4 C4            -2.3965    -0.0973     0.0444 C.ar    
   5 C5            -2.4677     1.2987     0.0565 C.ar    
   6 C6            -1.2866     2.0478     0.0536 C.ar    
   7 Cl7            1.3955     2.3576     0.0186 Cl      
   8 O8             1.2055    -0.5940    -0.0025 O.3     
   9 C9             1.8456    -0.8080     1.2570 C.3     
  10 C10           -1.0946    -2.2275     0.0119 C.3     
  11 C11           -0.9833    -2.7125    -1.4106 C.ar    
  12 C12            0.2600    -2.9830    -1.9521 C.ar    
  13 C13            0.3652    -3.4272    -3.2556 C.ar    
  14 C14           -0.7790    -3.6026    -4.0223 C.ar    
  15 C15           -2.0259    -3.3307    -3.4756 C.ar    
  16 C16           -2.1251    -2.8916    -2.1698 C.ar    
  17 N17           -0.6754    -4.0529    -5.3458 N.pl3   
  18 C18           -1.7044    -4.2649    -6.1971 C.2     
  19 C19           -1.1858    -4.6945    -7.3709 C.2     
  20 C20            0.2056    -4.7473    -7.2334 C.2     
  21 N21            0.5128    -4.3573    -6.0225 N.2     
  22 C22           -3.6068     2.2327     0.0779 C.2     
  23 N23           -3.1692     3.5035     0.0834 N.am    
  24 C24           -1.7019     3.4978     0.0694 C.3     
  25 O25           -4.7764     1.9010     0.0889 O.2     
  26 C26           -4.0175     4.6978     0.1035 C.3     
  27 C27           -4.8967     4.6986     1.3664 C.3     
  28 C28           -6.3617     4.6847     0.8834 C.3     
  29 C29           -6.2871     4.0754    -0.5386 C.3     
  30 C30           -4.9790     4.6834    -1.1028 C.3     
  31 O31           -4.6462     5.8761     2.1364 O.3     
  32 H32           -3.3026    -0.6849     0.0498 H       
  33 H33            2.0996     0.1534     1.7035 H       
  34 H34            1.1710    -1.3496     1.9201 H       
  35 H35            2.7546    -1.3909     1.1083 H       
  36 H36           -0.2205    -2.5526     0.5761 H       
  37 H37           -1.9950    -2.6401     0.4671 H       
  38 H38            1.1496    -2.8463    -1.3552 H       
  39 H39            1.3365    -3.6376    -3.6783 H       
  40 H40           -2.9177    -3.4658    -4.0697 H       
  41 H41           -3.0948    -2.6799    -1.7440 H       
  42 H42           -2.7520    -4.1182    -5.9793 H       
  43 H43           -1.7469    -4.9514    -8.2572 H       
  44 H44            0.9059    -5.0528    -7.9967 H       
  45 H45           -1.3168     3.9887     0.9631 H       
  46 H46           -1.3338     4.0023    -0.8240 H       
  47 H47           -3.3999     5.5955     0.0779 H       
  48 H48           -4.6922     3.8105     1.9643 H       
  49 H49           -6.9722     4.0593     1.5349 H       
  50 H50           -6.7599     5.6986     0.8437 H       
  51 H51           -6.2185     2.9886    -0.4902 H       
  52 H52           -7.1452     4.3831    -1.1362 H       
  53 H53           -5.1539     5.6970    -1.4633 H       
  54 H54           -4.5804     4.0571    -1.9009 H       
  55 H55           -5.1710     5.9353     2.9464 H       
@<TRIPOS>BOND
   1    1    2 ar
   2    1    7 1
   3    1    6 ar
   4    2    3 ar
   5    2    8 1
   6    3    4 ar
   7    3   10 1
   8    4    5 ar
   9    4   32 1
  10    5    6 ar
  11    5   22 1
  12    6   24 1
  13    8    9 1
  14    9   33 1
  15    9   34 1
  16    9   35 1
  17   10   11 1
  18   10   36 1
  19   10   37 1
  20   11   12 ar
  21   11   16 ar
  22   12   13 ar
  23   12   38 1
  24   13   14 ar
  25   13   39 1
  26   14   15 ar
  27   14   17 1
  28   15   16 ar
  29   15   40 1
  30   16   41 1
  31   17   18 1
  32   17   21 1
  33   18   19 2
  34   18   42 1
  35   19   20 1
  36   19   43 1
  37   20   21 2
  38   20   44 1
  39   22   23 am
  40   22   25 2
  41   23   24 1
  42   23   26 1
  43   24   45 1
  44   24   46 1
  45   26   27 1
  46   26   30 1
  47   26   47 1
  48   27   28 1
  49   27   31 1
  50   27   48 1
  51   28   29 1
  52   28   49 1
  53   28   50 1
  54   29   30 1
  55   29   51 1
  56   29   52 1
  57   30   53 1
  58   30   54 1
  59   31   55 1

#	End of record

