#	Name: ASD01912079
#	Creating user name:	WinNT
#	Creation time:	15. 06. 2019 19:59

#	Modifying user name:	WinNT
#	Modification time:	15. 06. 2019 19:59

#	Program:	/corina/corina34_cracker 3.40 0067  02.08.2006

@<TRIPOS>MOLECULE
ASD01912079
  62   66    0    0    0
SMALL
NO_CHARGES


@<TRIPOS>ATOM
   1 N1            -0.1990     1.3900    -0.1291 N.am    
   2 C2            -0.0242    -0.0450     0.1360 C.3     
   3 C3            -0.9246    -0.4390     1.3134 C.3     
   4 N4            -2.2782     0.0750     1.0620 N.am    
   5 C5            -2.4530     1.5100     0.7969 C.3     
   6 C6            -1.5533     1.9050    -0.3750 C.3     
   7 C7            -1.5101     3.4294    -0.4980 C.3     
   8 C8            -2.0988     1.2971    -1.6688 C.3     
   9 C9             0.8630     2.2197    -0.1410 C.2     
  10 C10            2.2007     1.7136     0.2333 C.2     
  11 O11            0.7210     3.3842    -0.4596 O.2     
  12 N12            2.5216     0.4294     0.4757 N.2     
  13 C13            3.7956     0.3965     0.7734 C.2     
  14 N14            4.2608     1.6612     0.7146 N.pl3   
  15 N15            3.2883     2.4386     0.3828 N.2     
  16 C16            5.5801     2.0613     0.9666 C.ar    
  17 C17            5.9308     3.4015     0.8716 C.ar    
  18 C18            6.5378     1.1192     1.3175 C.ar    
  19 C19            7.8370     1.5167     1.5658 C.ar    
  20 C20            8.1844     2.8514     1.4651 C.ar    
  21 C21            7.2316     3.7927     1.1210 C.ar    
  22 C22           -3.3403    -0.7547     1.0739 C.2     
  23 C23           -4.7066    -0.2086     0.9298 C.ar    
  24 O24           -3.1747    -1.9519     1.2031 O.2     
  25 C25           -5.6866    -0.9407     0.2581 C.ar    
  26 C26           -6.9598    -0.4253     0.1271 C.ar    
  27 C27           -7.2658     0.8142     0.6599 C.ar    
  28 C28           -6.2985     1.5454     1.3267 C.ar    
  29 C29           -5.0235     1.0389     1.4701 C.ar    
  30 C30           -8.0193    -1.2141    -0.5984 C.3     
  31 C31           -9.2405    -1.5521     0.2729 C.3     
  32 C32          -10.1062    -1.2524    -0.9623 C.3     
  33 C33           -8.9630    -0.3443    -1.4455 C.3     
  34 H34           -0.3062    -0.6173    -0.7478 H       
  35 H35            1.0169    -0.2462     0.3883 H       
  36 H36           -0.9563    -1.5250     1.4022 H       
  37 H37           -0.5337    -0.0055     2.2339 H       
  38 H38           -3.4942     1.7112     0.5446 H       
  39 H39           -2.1710     2.0823     1.6807 H       
  40 H40           -1.0092     3.8503     0.3738 H       
  41 H41           -0.9636     3.7058    -1.3997 H       
  42 H42           -2.5267     3.8182    -0.5559 H       
  43 H43           -3.1084     1.6673    -1.8466 H       
  44 H44           -1.4559     1.5801    -2.5023 H       
  45 H45           -2.1205     0.2111    -1.5790 H       
  46 H46            4.3702    -0.4837     1.0214 H       
  47 H47            5.1872     4.1370     0.6025 H       
  48 H48            6.2670     0.0767     1.3966 H       
  49 H49            8.5823     0.7845     1.8391 H       
  50 H50            9.2010     3.1598     1.6597 H       
  51 H51            7.5060     4.8344     1.0428 H       
  52 H52           -5.4489    -1.9083    -0.1586 H       
  53 H53           -8.2639     1.2131     0.5546 H       
  54 H54           -6.5437     2.5126     1.7400 H       
  55 H55           -4.2695     1.6106     1.9907 H       
  56 H56           -7.6149    -2.0723    -1.1351 H       
  57 H57           -9.2765    -2.5947     0.5887 H       
  58 H58           -9.3967    -0.8540     1.0954 H       
  59 H59          -10.2731    -2.1207    -1.5996 H       
  60 H60          -11.0246    -0.7127    -0.7313 H       
  61 H61           -9.0434     0.6840    -1.0929 H       
  62 H62           -8.7750    -0.4119    -2.5171 H       
@<TRIPOS>BOND
   1    1    2 1
   2    1    9 am
   3    1    6 1
   4    2    3 1
   5    2   34 1
   6    2   35 1
   7    3    4 1
   8    3   36 1
   9    3   37 1
  10    4    5 1
  11    4   22 am
  12    5    6 1
  13    5   38 1
  14    5   39 1
  15    6    7 1
  16    6    8 1
  17    7   40 1
  18    7   41 1
  19    7   42 1
  20    8   43 1
  21    8   44 1
  22    8   45 1
  23    9   10 1
  24    9   11 2
  25   10   12 1
  26   10   15 2
  27   12   13 2
  28   13   14 1
  29   13   46 1
  30   14   15 1
  31   14   16 1
  32   16   17 ar
  33   16   18 ar
  34   17   21 ar
  35   17   47 1
  36   18   19 ar
  37   18   48 1
  38   19   20 ar
  39   19   49 1
  40   20   21 ar
  41   20   50 1
  42   21   51 1
  43   22   23 1
  44   22   24 2
  45   23   25 ar
  46   23   29 ar
  47   25   26 ar
  48   25   52 1
  49   26   27 ar
  50   26   30 1
  51   27   28 ar
  52   27   53 1
  53   28   29 ar
  54   28   54 1
  55   29   55 1
  56   30   31 1
  57   30   33 1
  58   30   56 1
  59   31   32 1
  60   31   57 1
  61   31   58 1
  62   32   33 1
  63   32   59 1
  64   32   60 1
  65   33   61 1
  66   33   62 1

#	End of record

