#	Name: ASD01882540
#	Creating user name:	WinNT
#	Creation time:	15. 06. 2019 19:44

#	Modifying user name:	WinNT
#	Modification time:	15. 06. 2019 19:44

#	Program:	/corina/corina34_cracker 3.40 0067  02.08.2006

@<TRIPOS>MOLECULE
ASD01882540
  51   54    0    0    0
SMALL
NO_CHARGES


@<TRIPOS>ATOM
   1 C1             1.2805     1.4557     1.0374 C.2     
   2 C2             1.2116     0.0518     1.0671 C.2     
   3 C3             1.5521    -0.6564    -0.0540 C.2     
   4 C4             1.9645     0.0328    -1.2148 C.2     
   5 C5             2.0233     1.3790    -1.2210 C.2     
   6 N6             1.6861     2.0946    -0.1090 N.pl3   
   7 N7             1.2424     3.5550     1.4111 N.2     
   8 N8             1.0198     2.3989     1.9299 N.2     
   9 C9             1.6479     3.4280     0.1750 C.2     
  10 C10            2.0056     4.5501    -0.7653 C.3     
  11 C11            0.7581     4.9870    -1.5358 C.3     
  12 C12            1.1213     6.1261    -2.4905 C.3     
  13 N13            1.4923    -2.0480    -0.0490 N.pl3   
  14 C14            2.7111    -2.8502    -0.2213 C.3     
  15 C15            2.4928    -3.8379    -1.3717 C.3     
  16 C16            1.2317    -4.6611    -1.0996 C.3     
  17 C17            0.0191    -3.7305    -1.0253 C.3     
  18 C18            0.2102    -2.7415     0.1347 C.3     
  19 C19            1.0295    -5.6726    -2.2296 C.3     
  20 F20            2.1372    -6.5245    -2.2967 F       
  21 F21           -0.1232    -6.4253    -1.9811 F       
  22 F22            0.8897    -4.9928    -3.4444 F       
  23 C23            1.3831    -5.3939     0.2086 C.ar    
  24 C24            1.5795    -4.6852     1.3791 C.ar    
  25 C25            1.7184    -5.3574     2.5790 C.ar    
  26 C26            1.6604    -6.7382     2.6085 C.ar    
  27 C27            1.4630    -7.4468     1.4381 C.ar    
  28 C28            1.3198    -6.7745     0.2388 C.ar    
  29 Cl29           0.7018    -0.7731     2.5070 Cl      
  30 H30            2.2345    -0.5213    -2.1016 H       
  31 H31            2.3405     1.8965    -2.1143 H       
  32 H32            2.3936     5.3933    -0.1938 H       
  33 H33            2.7651     4.2071    -1.4679 H       
  34 H34            0.3702     4.1437    -2.1073 H       
  35 H35           -0.0014     5.3299    -0.8332 H       
  36 H36            0.2325     6.4374    -3.0394 H       
  37 H37            1.5092     6.9694    -1.9190 H       
  38 H38            1.8808     5.7832    -3.1931 H       
  39 H39            3.5497    -2.1948    -0.4565 H       
  40 H40            2.9201    -3.3991     0.6969 H       
  41 H41            2.3740    -3.2883    -2.3055 H       
  42 H42            3.3525    -4.5037    -1.4477 H       
  43 H43           -0.0764    -3.1819    -1.9623 H       
  44 H44           -0.8819    -4.3197    -0.8548 H       
  45 H45            0.2193    -3.2818     1.0813 H       
  46 H46           -0.6019    -2.0145     0.1344 H       
  47 H47            1.6248    -3.6064     1.3560 H       
  48 H48            1.8726    -4.8037     3.4934 H       
  49 H49            1.7696    -7.2633     3.5458 H       
  50 H50            1.4180    -8.5256     1.4611 H       
  51 H51            1.1619    -7.3279    -0.6751 H       
@<TRIPOS>BOND
   1    1    2 1
   2    1    6 1
   3    1    8 2
   4    2    3 2
   5    2   29 1
   6    3    4 1
   7    3   13 1
   8    4    5 2
   9    4   30 1
  10    5    6 1
  11    5   31 1
  12    6    9 1
  13    7    8 1
  14    7    9 2
  15    9   10 1
  16   10   11 1
  17   10   32 1
  18   10   33 1
  19   11   12 1
  20   11   34 1
  21   11   35 1
  22   12   36 1
  23   12   37 1
  24   12   38 1
  25   13   14 1
  26   13   18 1
  27   14   15 1
  28   14   39 1
  29   14   40 1
  30   15   16 1
  31   15   41 1
  32   15   42 1
  33   16   17 1
  34   16   19 1
  35   16   23 1
  36   17   18 1
  37   17   43 1
  38   17   44 1
  39   18   45 1
  40   18   46 1
  41   19   20 1
  42   19   21 1
  43   19   22 1
  44   23   24 ar
  45   23   28 ar
  46   24   25 ar
  47   24   47 1
  48   25   26 ar
  49   25   48 1
  50   26   27 ar
  51   26   49 1
  52   27   28 ar
  53   27   50 1
  54   28   51 1

#	End of record

