#	Name: ASD01915709
#	Creating user name:	WinNT
#	Creation time:	15. 06. 2019 20:06

#	Modifying user name:	WinNT
#	Modification time:	15. 06. 2019 20:06

#	Program:	/corina/corina34_cracker 3.40 0067  02.08.2006

@<TRIPOS>MOLECULE
ASD01915709
  42   45    0    0    0
SMALL
NO_CHARGES


@<TRIPOS>ATOM
   1 C1            -0.0166     1.3728     0.0096 C.2     
   2 N2             0.0021    -0.0041     0.0020 N.pl3   
   3 C3            -1.2433    -0.7807    -0.0179 C.3     
   4 C4            -2.3411     0.0068     0.6954 C.3     
   5 N5            -2.4042     1.3989     0.2636 N.am    
   6 C6            -1.2811     2.1228     0.0392 C.2     
   7 C7             1.2846     1.7904    -0.0006 C.2     
   8 C8             2.0437     0.6125    -0.0024 C.2     
   9 N9             1.2133    -0.4042     0.0045 N.2     
  10 C10            3.5483     0.5278    -0.0111 C.3     
  11 O11            4.0996     1.8461    -0.0175 O.3     
  12 C12            5.4525     1.9480    -0.0257 C.ar    
  13 O13           -1.3168     3.3269    -0.1285 O.2     
  14 N14            6.1920     0.8513    -0.0276 N.ar    
  15 C15            6.0476     3.2027    -0.0379 C.ar    
  16 C16            7.4289     3.2929    -0.0463 C.ar    
  17 C17            8.1689     2.1189    -0.0421 C.ar    
  18 C18            7.5102     0.9052    -0.0356 C.ar    
  19 C19           -3.6447     1.9961     0.0782 C.ar    
  20 N20           -3.7333     3.2295    -0.4088 N.ar    
  21 C21           -4.8163     1.3078     0.3952 C.ar    
  22 C22           -6.0276     1.9421     0.1942 C.ar    
  23 N23           -6.0402     3.1751    -0.2898 N.ar    
  24 C24           -4.9127     3.8010    -0.5865 C.ar    
  25 O25           -4.9676     5.0615    -1.0794 O.3     
  26 C26           -6.2650     5.6367    -1.2470 C.3     
  27 H27           -1.5404    -0.9656    -1.0502 H       
  28 H28           -1.0875    -1.7313     0.4922 H       
  29 H29           -3.3017    -0.4679     0.4954 H       
  30 H30           -2.1536    -0.0208     1.7688 H       
  31 H31            1.6488     2.8072    -0.0066 H       
  32 H32            3.8875    -0.0036     0.8781 H       
  33 H33            3.8769    -0.0077    -0.9018 H       
  34 H34            5.4409     4.0962    -0.0412 H       
  35 H35            7.9195     4.2550    -0.0562 H       
  36 H36            9.2483     2.1540    -0.0487 H       
  37 H37            8.0814    -0.0114    -0.0323 H       
  38 H38           -4.7775     0.3026     0.7883 H       
  39 H39           -6.9535     1.4380     0.4286 H       
  40 H40           -6.7719     5.6768    -0.2829 H       
  41 H41           -6.1662     6.6455    -1.6478 H       
  42 H42           -6.8464     5.0264    -1.9381 H       
@<TRIPOS>BOND
   1    1    2 1
   2    1    7 2
   3    1    6 1
   4    2    3 1
   5    2    9 1
   6    3    4 1
   7    3   27 1
   8    3   28 1
   9    4    5 1
  10    4   29 1
  11    4   30 1
  12    5    6 am
  13    5   19 1
  14    6   13 2
  15    7    8 1
  16    7   31 1
  17    8    9 2
  18    8   10 1
  19   10   11 1
  20   10   32 1
  21   10   33 1
  22   11   12 1
  23   12   14 ar
  24   12   15 ar
  25   14   18 ar
  26   15   16 ar
  27   15   34 1
  28   16   17 ar
  29   16   35 1
  30   17   18 ar
  31   17   36 1
  32   18   37 1
  33   19   20 ar
  34   19   21 ar
  35   20   24 ar
  36   21   22 ar
  37   21   38 1
  38   22   23 ar
  39   22   39 1
  40   23   24 ar
  41   24   25 1
  42   25   26 1
  43   26   40 1
  44   26   41 1
  45   26   42 1

#	End of record

