#	Name: ASD03091948
#	Creating user name:	WinNT
#	Creation time:	15. 06. 2019 20:31

#	Modifying user name:	WinNT
#	Modification time:	15. 06. 2019 20:31

#	Program:	/corina/corina34_cracker 3.40 0067  02.08.2006

@<TRIPOS>MOLECULE
ASD03091948
  35   36    0    0    0
SMALL
NO_CHARGES


@<TRIPOS>ATOM
   1 C1            -1.3066     1.1882     0.1948 C.3     
   2 C2            -0.6244    -0.1514     0.0897 C.ar    
   3 C3            -0.6192    -0.8313    -1.1120 C.ar    
   4 C4             0.0089    -2.0646    -1.2089 C.ar    
   5 O5             0.0132    -2.7339    -2.3925 O.3     
   6 C6             0.6327    -2.6149    -0.0991 C.ar    
   7 C7             0.6286    -1.9356     1.1035 C.ar    
   8 C8             0.0041    -0.6996     1.2000 C.ar    
   9 N9             0.0038    -0.0076     2.4186 N.am    
  10 C10           -0.0620    -0.6882     3.5800 C.2     
  11 O11           -0.2187    -1.8940     3.5701 O.2     
  12 N12            0.0460    -0.0324     4.7525 N.am    
  13 C13           -0.1428    -0.7183     5.9582 C.ar    
  14 C14           -0.9132    -1.8725     5.9886 C.ar    
  15 C15           -1.0974    -2.5475     7.1799 C.ar    
  16 C16           -0.5158    -2.0747     8.3416 C.ar    
  17 C17            0.2526    -0.9250     8.3156 C.ar    
  18 C18            0.4455    -0.2482     7.1264 C.ar    
  19 Cl19           1.4154     1.1912     7.0930 Cl      
  20 C20           -1.9338    -3.8007     7.2132 C.3     
  21 F21           -1.1175    -4.9125     6.9794 F       
  22 F22           -2.5406    -3.9232     8.4678 F       
  23 F23           -2.9198    -3.7297     6.2233 F       
  24 H24           -0.5950     1.9782    -0.0452 H       
  25 H25           -2.1417     1.2265    -0.5047 H       
  26 H26           -1.6767     1.3288     1.2104 H       
  27 H27           -1.1044    -0.4032    -1.9766 H       
  28 H28            0.7686    -2.5258    -2.9593 H       
  29 H29            1.1214    -3.5750    -0.1752 H       
  30 H30            1.1144    -2.3643     1.9676 H       
  31 H31            0.0509     0.9612     2.4262 H       
  32 H32            0.2545     0.9149     4.7609 H       
  33 H33           -1.3686    -2.2423     5.0818 H       
  34 H34           -0.6621    -2.6041     9.2715 H       
  35 H35            0.7056    -0.5582     9.2248 H       
@<TRIPOS>BOND
   1    1    2 1
   2    1   24 1
   3    1   25 1
   4    1   26 1
   5    2    8 ar
   6    2    3 ar
   7    3    4 ar
   8    3   27 1
   9    4    5 1
  10    4    6 ar
  11    5   28 1
  12    6    7 ar
  13    6   29 1
  14    7    8 ar
  15    7   30 1
  16    8    9 1
  17    9   10 am
  18    9   31 1
  19   10   11 2
  20   10   12 am
  21   12   13 1
  22   12   32 1
  23   13   18 ar
  24   13   14 ar
  25   14   15 ar
  26   14   33 1
  27   15   16 ar
  28   15   20 1
  29   16   17 ar
  30   16   34 1
  31   17   18 ar
  32   17   35 1
  33   18   19 1
  34   20   21 1
  35   20   22 1
  36   20   23 1

#	End of record

