#	Name: ASD01028163
#	Creating user name:	WinNT
#	Creation time:	15. 06. 2019 18:56

#	Modifying user name:	WinNT
#	Modification time:	15. 06. 2019 18:56

#	Program:	/corina/corina34_cracker 3.40 0067  02.08.2006

@<TRIPOS>MOLECULE
ASD01028163
  61   64    0    0    0
SMALL
NO_CHARGES


@<TRIPOS>ATOM
   1 C1             0.0771     0.6970    -1.4231 C.ar    
   2 C2             0.2245    -0.4325    -0.5995 C.ar    
   3 C3             1.4355    -0.6201     0.0764 C.ar    
   4 C4             2.4375     0.3184    -0.0970 C.ar    
   5 C5             2.2177     1.4047    -0.9247 C.ar    
   6 N6             1.0693     1.5640    -1.5532 N.ar    
   7 C7            -0.8764    -1.4012    -0.4500 C.2     
   8 O8            -1.9602    -1.1723    -0.9519 O.2     
   9 N9            -0.6818    -2.5408     0.2428 N.am    
  10 C10           -1.7535    -3.4081     0.4774 C.ar    
  11 C11           -1.5399    -4.7788     0.5289 C.ar    
  12 C12           -2.6044    -5.6350     0.7615 C.ar    
  13 C13           -3.8810    -5.1208     0.9424 C.ar    
  14 C14           -4.0918    -3.7562     0.8908 C.ar    
  15 C15           -3.0322    -2.8989     0.6648 C.ar    
  16 C16           -5.0386    -6.0520     1.1948 C.3     
  17 F17           -6.2129    -5.3065     1.3440 F       
  18 F18           -5.1767    -6.9282     0.1130 F       
  19 F19           -4.8007    -6.7859     2.3619 F       
  20 O20           -2.3987    -6.9774     0.8120 O.3     
  21 C21           -1.0596    -7.4363     0.6167 C.3     
  22 C22           -1.0253    -8.9632     0.7077 C.3     
  23 N23           -1.7986    -9.5373    -0.4016 N.3     
  24 C24           -1.5954   -10.9951    -0.4886 C.3     
  25 C25           -2.9860   -11.6571    -0.3929 C.3     
  26 C26           -3.9458   -10.5185    -0.8280 C.3     
  27 C27           -3.2434    -9.2726    -0.2331 C.3     
  28 N28           -1.1081     0.9007    -2.1055 N.pl3   
  29 C29           -1.3121     2.1356    -2.8668 C.3     
  30 C30           -5.0156     2.5736    -3.4717 C.ar    
  31 C31           -3.7825     2.6149    -2.8492 C.ar    
  32 C32           -2.6741     2.1092    -3.5112 C.ar    
  33 C33           -2.8486     1.5791    -4.7804 C.ar    
  34 C34           -4.1125     1.5724    -5.3395 C.ar    
  35 N35           -5.1444     2.0617    -4.6802 N.ar    
  36 H36            1.5842    -1.4761     0.7179 H       
  37 H37            3.3840     0.2037     0.4103 H       
  38 H38            3.0010     2.1360    -1.0587 H       
  39 H39            0.2015    -2.7594     0.5788 H       
  40 H40           -0.5460    -5.1771     0.3875 H       
  41 H41           -5.0860    -3.3587     1.0319 H       
  42 H42           -3.1988    -1.8324     0.6298 H       
  43 H43           -0.7078    -7.1229    -0.3663 H       
  44 H44           -0.4142    -7.0120     1.3858 H       
  45 H45            0.0070    -9.3078     0.6475 H       
  46 H46           -1.4596    -9.2805     1.6557 H       
  47 H47           -1.1289   -11.2483    -1.4407 H       
  48 H48           -0.9669   -11.3317     0.3359 H       
  49 H49           -3.0577   -12.5036    -1.0757 H       
  50 H50           -3.1955   -11.9675     0.6308 H       
  51 H51           -4.0052   -10.4517    -1.9144 H       
  52 H52           -4.9356   -10.6542    -0.3920 H       
  53 H53           -3.4891    -9.1669     0.8236 H       
  54 H54           -3.5315    -8.3762    -0.7821 H       
  55 H55           -1.8044     0.2259    -2.0801 H       
  56 H56           -1.2443     2.9917    -2.1955 H       
  57 H57           -0.5466     2.2174    -3.6384 H       
  58 H58           -5.8846     2.9613    -2.9610 H       
  59 H59           -3.6834     3.0356    -1.8595 H       
  60 H60           -2.0075     1.1768    -5.3254 H       
  61 H61           -4.2568     1.1612    -6.3278 H       
@<TRIPOS>BOND
   1    1    2 ar
   2    1    6 ar
   3    1   28 1
   4    2    3 ar
   5    2    7 1
   6    3    4 ar
   7    3   36 1
   8    4    5 ar
   9    4   37 1
  10    5    6 ar
  11    5   38 1
  12    7    8 2
  13    7    9 am
  14    9   10 1
  15    9   39 1
  16   10   11 ar
  17   10   15 ar
  18   11   12 ar
  19   11   40 1
  20   12   13 ar
  21   12   20 1
  22   13   14 ar
  23   13   16 1
  24   14   15 ar
  25   14   41 1
  26   15   42 1
  27   16   17 1
  28   16   18 1
  29   16   19 1
  30   20   21 1
  31   21   22 1
  32   21   43 1
  33   21   44 1
  34   22   23 1
  35   22   45 1
  36   22   46 1
  37   23   24 1
  38   23   27 1
  39   24   25 1
  40   24   47 1
  41   24   48 1
  42   25   26 1
  43   25   49 1
  44   25   50 1
  45   26   27 1
  46   26   51 1
  47   26   52 1
  48   27   53 1
  49   27   54 1
  50   28   29 1
  51   28   55 1
  52   29   32 1
  53   29   56 1
  54   29   57 1
  55   30   31 ar
  56   30   35 ar
  57   30   58 1
  58   31   32 ar
  59   31   59 1
  60   32   33 ar
  61   33   34 ar
  62   33   60 1
  63   34   35 ar
  64   34   61 1

#	End of record

