#	Name: ASD01150668
#	Creating user name:	WinNT
#	Creation time:	15. 06. 2019 19:04

#	Modifying user name:	WinNT
#	Modification time:	15. 06. 2019 19:04

#	Program:	/corina/corina34_cracker 3.40 0067  02.08.2006

@<TRIPOS>MOLECULE
ASD01150668
  51   53    0    0    0
SMALL
NO_CHARGES


@<TRIPOS>ATOM
   1 C1             1.9143     1.4015     0.9688 C.ar    
   2 C2             1.9596     0.0213     0.9431 C.ar    
   3 C3             0.4927     0.0046    -0.9573 C.ar    
   4 C4             0.4446     1.3911    -0.9340 C.ar    
   5 C5             1.1563     2.0910     0.0299 C.ar    
   6 N6             1.1106     3.4892     0.0568 N.am    
   7 C7            -0.0779     4.1147    -0.0077 C.2     
   8 N8            -0.1588     5.4581     0.0162 N.am    
   9 C9             0.9637     6.2013     0.1062 C.2     
  10 C10            2.2668     5.5231     0.1771 C.2     
  11 N11            2.3024     4.2168     0.1564 N.2     
  12 O12            0.8988     7.4163     0.1279 O.2     
  13 C13           -1.4669     6.1139    -0.0560 C.3     
  14 O14           -1.0968     3.4557    -0.0894 O.2     
  15 C15           -2.0091     6.3079     1.3366 C.ar    
  16 O16            3.4152     6.2432     0.2678 O.3     
  17 C17            1.2518    -0.6785    -0.0157 C.ar    
  18 N18           -0.2232    -0.7049    -1.9279 N.am    
  19 C19            0.2667    -1.8622    -2.4148 C.2     
  20 O20            1.3685    -2.2429    -2.0799 O.2     
  21 C21           -0.5544    -2.6831    -3.3755 C.3     
  22 C22           -1.7243     7.4673     2.0336 C.ar    
  23 C23           -2.2213     7.6458     3.3109 C.ar    
  24 C24           -3.0041     6.6639     3.8918 C.ar    
  25 C25           -3.2888     5.5039     3.1937 C.ar    
  26 C26           -2.7958     5.3290     1.9143 C.ar    
  27 Cl27          -3.6282     6.8872     5.4963 Cl      
  28 C28            4.6387     5.5077     0.3323 C.3     
  29 C29            5.7628     6.3314    -0.2994 C.3     
  30 C30            4.9810     5.2144     1.7944 C.3     
  31 H31            2.4650     1.9454     1.7221 H       
  32 H32            2.5496    -0.5122     1.6736 H       
  33 H33           -0.1452     1.9245    -1.6648 H       
  34 H34           -1.3609     7.0833    -0.5430 H       
  35 H35           -2.1539     5.4921    -0.6301 H       
  36 H36            1.2893    -1.7577    -0.0331 H       
  37 H37           -1.0721    -0.3638    -2.2503 H       
  38 H38           -1.5071    -2.1853    -3.5566 H       
  39 H39           -0.0148    -2.7885    -4.3167 H       
  40 H40           -0.7353    -3.6694    -2.9480 H       
  41 H41           -1.1130     8.2335     1.5802 H       
  42 H42           -1.9985     8.5514     3.8555 H       
  43 H43           -3.8997     4.7371     3.6466 H       
  44 H44           -3.0180     4.4235     1.3692 H       
  45 H45            4.5273     4.5688    -0.2102 H       
  46 H46            5.8742     7.2702     0.2431 H       
  47 H47            6.6960     5.7704    -0.2502 H       
  48 H48            5.5189     6.5403    -1.3410 H       
  49 H49            5.9143     4.6534     1.8436 H       
  50 H50            5.0924     6.1533     2.3368 H       
  51 H51            4.1802     4.6276     2.2444 H       
@<TRIPOS>BOND
   1    1    2 ar
   2    1    5 ar
   3    1   31 1
   4    2   17 ar
   5    2   32 1
   6    3    4 ar
   7    3   18 1
   8    3   17 ar
   9    4    5 ar
  10    4   33 1
  11    5    6 1
  12    6    7 am
  13    6   11 1
  14    7    8 am
  15    7   14 2
  16    8    9 am
  17    8   13 1
  18    9   10 1
  19    9   12 2
  20   10   11 2
  21   10   16 1
  22   13   15 1
  23   13   34 1
  24   13   35 1
  25   15   22 ar
  26   15   26 ar
  27   16   28 1
  28   17   36 1
  29   18   19 am
  30   18   37 1
  31   19   20 2
  32   19   21 1
  33   21   38 1
  34   21   39 1
  35   21   40 1
  36   22   23 ar
  37   22   41 1
  38   23   24 ar
  39   23   42 1
  40   24   25 ar
  41   24   27 1
  42   25   26 ar
  43   25   43 1
  44   26   44 1
  45   28   29 1
  46   28   30 1
  47   28   45 1
  48   29   46 1
  49   29   47 1
  50   29   48 1
  51   30   49 1
  52   30   50 1
  53   30   51 1

#	End of record

