#	Name: ASD01881145
#	Creating user name:	WinNT
#	Creation time:	15. 06. 2019 19:42

#	Modifying user name:	WinNT
#	Modification time:	15. 06. 2019 19:42

#	Program:	/corina/corina34_cracker 3.40 0067  02.08.2006

@<TRIPOS>MOLECULE
ASD01881145
  41   43    0    0    0
SMALL
NO_CHARGES


@<TRIPOS>ATOM
   1 N1            -0.0158     1.3136     0.0093 N.ar    
   2 C2             0.0021    -0.0041     0.0020 C.ar    
   3 N3             1.1320    -0.6826    -0.0124 N.ar    
   4 C4             2.2985    -0.0575    -0.0202 C.ar    
   5 C5             2.3211     1.3280    -0.0130 C.ar    
   6 C6             1.1121     2.0071     0.0022 C.ar    
   7 C7             3.6278     2.0786    -0.0209 C.3     
   8 O8             4.0285     2.3231    -1.3706 O.3     
   9 C9             5.1935     2.9942    -1.5555 C.ar    
  10 C10            5.6421     3.2655    -2.8449 C.ar    
  11 C11            6.8201     3.9446    -3.0317 C.ar    
  12 C12            7.5756     4.3674    -1.9326 C.ar    
  13 C13            7.1207     4.0924    -0.6386 C.ar    
  14 C14            5.9337     3.4143    -0.4578 C.ar    
  15 C15            7.5717     4.3901    -4.2613 C.3     
  16 N16            8.7752     5.0771    -3.7790 N.am    
  17 C17            8.7730     5.0615    -2.4351 C.2     
  18 O18            9.6370     5.5514    -1.7337 O.2     
  19 C19           -1.3043    -0.7553     0.0110 C.3     
  20 C20            3.5851    -0.8421    -0.0362 C.3     
  21 Cl21           8.0455     4.6090     0.7367 Cl      
  22 I22            1.0708     4.1017     0.0132 I       
  23 C23            9.4493     7.1418    -4.9035 C.3     
  24 C24            9.8088     5.6812    -4.6234 C.3     
  25 H25            3.5043     3.0285     0.4992 H       
  26 H26            4.3908     1.4851     0.4828 H       
  27 H27            5.0639     2.9417    -3.6977 H       
  28 H28            5.5821     3.2022     0.5411 H       
  29 H29            7.8499     3.5256    -4.8641 H       
  30 H30            6.9588     5.0748    -4.8476 H       
  31 H31           -1.6295    -0.9309    -1.0145 H       
  32 H32           -1.1706    -1.7106     0.5184 H       
  33 H33           -2.0578    -0.1676     0.5355 H       
  34 H34            3.8857    -1.0261    -1.0677 H       
  35 H35            4.3634    -0.2740     0.4732 H       
  36 H36            3.4368    -1.7937     0.4743 H       
  37 H37            8.4886     7.1875    -5.4163 H       
  38 H38            9.3849     7.6871    -3.9619 H       
  39 H39           10.2183     7.5912    -5.5317 H       
  40 H40           10.7695     5.6354    -4.1105 H       
  41 H41            9.8732     5.1359    -5.5650 H       
@<TRIPOS>BOND
   1    1    2 ar
   2    1    6 ar
   3    2    3 ar
   4    2   19 1
   5    3    4 ar
   6    4    5 ar
   7    4   20 1
   8    5    6 ar
   9    5    7 1
  10    6   22 1
  11    7    8 1
  12    7   25 1
  13    7   26 1
  14    8    9 1
  15    9   10 ar
  16    9   14 ar
  17   10   11 ar
  18   10   27 1
  19   11   12 ar
  20   11   15 1
  21   12   13 ar
  22   12   17 1
  23   13   14 ar
  24   13   21 1
  25   14   28 1
  26   15   16 1
  27   15   29 1
  28   15   30 1
  29   16   17 am
  30   16   24 1
  31   17   18 2
  32   19   31 1
  33   19   32 1
  34   19   33 1
  35   20   34 1
  36   20   35 1
  37   20   36 1
  38   23   24 1
  39   23   37 1
  40   23   38 1
  41   23   39 1
  42   24   40 1
  43   24   41 1

#	End of record

