#	Name: ASD00250003
#	Creating user name:	WinNT
#	Creation time:	15. 06. 2019 18:33

#	Modifying user name:	WinNT
#	Modification time:	15. 06. 2019 18:33

#	Program:	/corina/corina34_cracker 3.40 0067  02.08.2006

@<TRIPOS>MOLECULE
ASD00250003
  29   29    0    0    0
SMALL
NO_CHARGES


@<TRIPOS>ATOM
   1 O1            -0.0173     1.4248     0.0099 O.3     
   2 C2             0.0021    -0.0041     0.0020 C.3     
   3 C3             0.6933    -0.4966    -1.2721 C.3     
   4 C4             2.1083     0.0868    -1.3342 C.3     
   5 C5             2.0216     1.6150    -1.2734 C.3     
   6 C6             1.2791     2.0260     0.0007 C.3     
   7 O7             0.7168    -0.4773     1.1454 O.3     
   8 O8            -0.0503    -0.0686    -2.4148 O.3     
   9 O9             2.7351    -0.3082    -2.5561 O.3     
  10 O10            3.3393     2.1677    -1.2576 O.3     
  11 C11            1.1357     3.5487     0.0390 C.3     
  12 O12            0.5461     3.9406     1.2803 O.3     
  13 P13            0.2470     5.4756     1.6632 P.3     
  14 O14           -0.5873     6.0935     0.6084 O.2     
  15 O15           -0.5344     5.5355     3.0695 O.3     
  16 O16            1.6371     6.2784     1.7870 O.3     
  17 H17           -1.0201    -0.3816     0.0302 H       
  18 H18            0.7484    -1.5852    -1.2590 H       
  19 H19            2.6910    -0.2792    -0.4889 H       
  20 H20            1.4813     1.9841    -2.1451 H       
  21 H21            1.8410     1.6916     0.8728 H       
  22 H22            0.3347    -0.2018     1.9899 H       
  23 H23           -0.9593    -0.3977    -2.4384 H       
  24 H24            2.8169    -1.2656    -2.6645 H       
  25 H25            3.8694     1.9431    -2.0345 H       
  26 H26            2.1191     4.0089    -0.0575 H       
  27 H27            0.4998     3.8746    -0.7841 H       
  28 H28           -0.7478     6.4318     3.3630 H       
  29 H29            2.2352     5.9276     2.4610 H       
@<TRIPOS>BOND
   1    1    2 1
   2    1    6 1
   3    2    3 1
   4    2    7 1
   5    2   17 1
   6    3    4 1
   7    3    8 1
   8    3   18 1
   9    4    5 1
  10    4    9 1
  11    4   19 1
  12    5    6 1
  13    5   10 1
  14    5   20 1
  15    6   11 1
  16    6   21 1
  17    7   22 1
  18    8   23 1
  19    9   24 1
  20   10   25 1
  21   11   12 1
  22   11   26 1
  23   11   27 1
  24   12   13 1
  25   13   14 2
  26   13   15 1
  27   13   16 1
  28   15   28 1
  29   16   29 1

#	End of record

