#	Name: ASD01881563
#	Creating user name:	WinNT
#	Creation time:	15. 06. 2019 19:42

#	Modifying user name:	WinNT
#	Modification time:	15. 06. 2019 19:42

#	Program:	/corina/corina34_cracker 3.40 0067  02.08.2006

@<TRIPOS>MOLECULE
ASD01881563
  58   62    0    0    0
SMALL
NO_CHARGES


@<TRIPOS>ATOM
   1 C1            -0.1315     1.4481     0.4519 C.2     
   2 C2            -0.1026     0.0484     0.5753 C.2     
   3 C3            -1.1411    -0.6963     0.1416 C.2     
   4 N4            -2.2320    -0.1020    -0.4213 N.pl3   
   5 C5            -2.2893     1.2637    -0.5549 C.2     
   6 C6            -1.2156     2.0545    -0.1023 C.2     
   7 C7            -3.3988    -0.5759    -0.9364 C.2     
   8 N8            -4.0948     0.4532    -1.3458 N.2     
   9 N9            -3.4494     1.5445    -1.1256 N.2     
  10 C10           -3.8135    -2.0223    -1.0202 C.3     
  11 C11            1.0314     2.2744     0.9375 C.3     
  12 C12           -4.5690    -2.4108     0.2522 C.3     
  13 C13            2.0118     3.3184     2.8898 C.3     
  14 N14            0.8932     2.5140     2.3803 N.3     
  15 C15           -5.1783    -3.8130     0.3117 C.3     
  16 C16           -3.9409    -3.4805     1.1479 C.3     
  17 C17            1.5721     4.0609     4.1532 C.3     
  18 C18            3.1903     2.4008     3.2217 C.3     
  19 C19            2.7640     1.3879     4.2862 C.3     
  20 C20            2.3242     2.1304     5.5496 C.3     
  21 C21            1.1458     3.0481     5.2178 C.3     
  22 C22            1.9043     1.1328     6.5981 C.ar    
  23 C23            2.5621     1.0904     7.8161 C.ar    
  24 C24            0.8594     0.2644     6.3460 C.ar    
  25 C25            0.4726    -0.6507     7.3072 C.ar    
  26 C26            1.1318    -0.6980     8.5237 C.ar    
  27 C27            2.1760     0.1744     8.7790 C.ar    
  28 F28            0.7533    -1.5922     9.4631 F       
  29 F29            3.5806     1.9427     8.0641 F       
  30 C30           -1.2623     3.5544    -0.2408 C.3     
  31 F31           -0.4763     3.9469    -1.3295 F       
  32 F32           -2.5842     3.9626    -0.4487 F       
  33 F33           -0.7698     4.1461     0.9274 F       
  34 H34            0.7557    -0.4339     1.0193 H       
  35 H35           -1.1080    -1.7713     0.2407 H       
  36 H36           -4.4611    -2.1650    -1.8853 H       
  37 H37           -2.9275    -2.6489    -1.1224 H       
  38 H38            1.9619     1.7404     0.7454 H       
  39 H39            1.0445     3.2284     0.4104 H       
  40 H40           -5.1157    -1.6035     0.7394 H       
  41 H41            2.3155     4.0400     2.1314 H       
  42 H42            0.0083     2.9506     2.5912 H       
  43 H43           -6.1256    -3.9282     0.8384 H       
  44 H44           -5.0409    -4.4587    -0.5557 H       
  45 H45           -2.9895    -3.9074     0.8307 H       
  46 H46           -4.0742    -3.3769     2.2248 H       
  47 H47            2.4021     4.6578     4.5313 H       
  48 H48            0.7325     4.7147     3.9168 H       
  49 H49            3.5035     1.8718     2.3216 H       
  50 H50            4.0203     2.9977     3.5998 H       
  51 H51            1.9340     0.7911     3.9081 H       
  52 H52            3.6035     0.7342     4.5226 H       
  53 H53            3.1542     2.7273     5.9277 H       
  54 H54            0.8325     3.5770     6.1178 H       
  55 H55            0.3158     2.4512     4.8397 H       
  56 H56            0.3443     0.3009     5.3975 H       
  57 H57           -0.3445    -1.3286     7.1092 H       
  58 H58            2.6910     0.1379     9.7276 H       
@<TRIPOS>BOND
   1    1    2 1
   2    1   11 1
   3    1    6 2
   4    2    3 2
   5    2   34 1
   6    3    4 1
   7    3   35 1
   8    4    5 1
   9    4    7 1
  10    5    6 1
  11    5    9 2
  12    6   30 1
  13    7    8 2
  14    7   10 1
  15    8    9 1
  16   10   12 1
  17   10   36 1
  18   10   37 1
  19   11   14 1
  20   11   38 1
  21   11   39 1
  22   12   15 1
  23   12   16 1
  24   12   40 1
  25   13   14 1
  26   13   17 1
  27   13   18 1
  28   13   41 1
  29   14   42 1
  30   15   16 1
  31   15   43 1
  32   15   44 1
  33   16   45 1
  34   16   46 1
  35   17   21 1
  36   17   47 1
  37   17   48 1
  38   18   19 1
  39   18   49 1
  40   18   50 1
  41   19   20 1
  42   19   51 1
  43   19   52 1
  44   20   21 1
  45   20   22 1
  46   20   53 1
  47   21   54 1
  48   21   55 1
  49   22   23 ar
  50   22   24 ar
  51   23   29 1
  52   23   27 ar
  53   24   25 ar
  54   24   56 1
  55   25   26 ar
  56   25   57 1
  57   26   27 ar
  58   26   28 1
  59   27   58 1
  60   30   31 1
  61   30   32 1
  62   30   33 1

#	End of record

