#	Name: ASD02030009
#	Creating user name:	WinNT
#	Creation time:	15. 06. 2019 20:14

#	Modifying user name:	WinNT
#	Modification time:	15. 06. 2019 20:14

#	Program:	/corina/corina34_cracker 3.40 0067  02.08.2006

@<TRIPOS>MOLECULE
ASD02030009
  58   59    0    0    0
SMALL
NO_CHARGES


@<TRIPOS>ATOM
   1 C1            -2.1672    -5.4977    -2.9073 C.ar    
   2 C2            -3.5457    -5.4531    -2.7876 C.ar    
   3 C3            -4.1441    -4.4351    -2.0668 C.ar    
   4 C4            -3.3658    -3.4634    -1.4667 C.ar    
   5 C5            -1.9891    -3.5078    -1.5865 C.ar    
   6 C6            -1.3893    -4.5275    -2.3011 C.ar    
   7 Cl7           -1.4148    -6.7744    -3.8115 Cl      
   8 C8            -4.0181    -2.3547    -0.6816 C.3     
   9 C9            -4.1609    -2.7811     0.7809 C.3     
  10 N10           -4.7967    -1.7004     1.5462 N.3     
  11 C11           -5.1659    -2.1558     2.8931 C.3     
  12 C12           -6.4164    -3.0335     2.8098 C.3     
  13 C13           -6.7300    -3.6070     4.1931 C.3     
  14 O14           -7.8267    -4.5177     4.0938 O.3     
  15 C15           -8.2352    -5.1200     5.2427 C.ar    
  16 C16           -9.2943    -6.0152     5.2173 C.ar    
  17 C17           -9.7095    -6.6276     6.3835 C.ar    
  18 C18           -9.0663    -6.3469     7.5817 C.ar    
  19 C19           -8.0060    -5.4505     7.6062 C.ar    
  20 C20           -7.5887    -4.8430     6.4381 C.ar    
  21 N21           -9.4866    -6.9666     8.7639 N.am    
  22 S22          -10.3560    -6.1106     9.8836 S.o2    
  23 C23          -11.8960    -5.6791     9.0274 C.3     
  24 O24          -10.6083    -7.0472    10.9220 O.2     
  25 O25           -9.5742    -4.9477    10.1199 O.2     
  26 O26           -7.5210    -2.2472     2.3586 O.3     
  27 Cl27          -4.5230    -6.6735    -3.5422 Cl      
  28 C28           -3.9268    -0.5183     1.6101 C.3     
  29 C29           -4.7466     0.6947     2.0544 C.3     
  30 C30           -3.8732     1.9496     1.9958 C.3     
  31 H31           -5.2195    -4.3995    -1.9734 H       
  32 H32           -1.3818    -2.7478    -1.1175 H       
  33 H33           -0.3139    -4.5615    -2.3943 H       
  34 H34           -3.4022    -1.4573    -0.7399 H       
  35 H35           -5.0039    -2.1465    -1.0973 H       
  36 H36           -4.7767    -3.6786     0.8392 H       
  37 H37           -3.1750    -2.9893     1.1966 H       
  38 H38           -4.3450    -2.7324     3.3194 H       
  39 H39           -5.3699    -1.2918     3.5256 H       
  40 H40           -6.2412    -3.8499     2.1092 H       
  41 H41           -5.8549    -4.1325     4.5755 H       
  42 H42           -6.9919    -2.7955     4.8721 H       
  43 H43           -9.7947    -6.2331     4.2854 H       
  44 H44          -10.5345    -7.3243     6.3636 H       
  45 H45           -7.5051    -5.2316     8.5377 H       
  46 H46           -6.7638    -4.1461     6.4570 H       
  47 H47           -9.2687    -7.8975     8.9275 H       
  48 H48          -12.4523    -6.5885     8.8001 H       
  49 H49          -12.4989    -5.0346     9.6670 H       
  50 H50          -11.6619    -5.1551     8.1008 H       
  51 H51           -7.6867    -1.4585     2.8930 H       
  52 H52           -3.1241    -0.6962     2.3258 H       
  53 H53           -3.5001    -0.3276     0.6254 H       
  54 H54           -5.6031     0.8169     1.3914 H       
  55 H55           -5.0963     0.5427     3.0755 H       
  56 H56           -3.0167     1.8274     2.6588 H       
  57 H57           -3.5236     2.1016     0.9747 H       
  58 H58           -4.4573     2.8138     2.3123 H       
@<TRIPOS>BOND
   1    1    2 ar
   2    1    7 1
   3    1    6 ar
   4    2    3 ar
   5    2   27 1
   6    3    4 ar
   7    3   31 1
   8    4    5 ar
   9    4    8 1
  10    5    6 ar
  11    5   32 1
  12    6   33 1
  13    8    9 1
  14    8   34 1
  15    8   35 1
  16    9   10 1
  17    9   36 1
  18    9   37 1
  19   10   11 1
  20   10   28 1
  21   11   12 1
  22   11   38 1
  23   11   39 1
  24   12   13 1
  25   12   26 1
  26   12   40 1
  27   13   14 1
  28   13   41 1
  29   13   42 1
  30   14   15 1
  31   15   16 ar
  32   15   20 ar
  33   16   17 ar
  34   16   43 1
  35   17   18 ar
  36   17   44 1
  37   18   19 ar
  38   18   21 1
  39   19   20 ar
  40   19   45 1
  41   20   46 1
  42   21   22 am
  43   21   47 1
  44   22   23 1
  45   22   24 2
  46   22   25 2
  47   23   48 1
  48   23   49 1
  49   23   50 1
  50   26   51 1
  51   28   29 1
  52   28   52 1
  53   28   53 1
  54   29   30 1
  55   29   54 1
  56   29   55 1
  57   30   56 1
  58   30   57 1
  59   30   58 1

#	End of record

