#	Name: ASD08150706
#	Creating user name:	WinNT
#	Creation time:	15. 06. 2019 21:16

#	Modifying user name:	WinNT
#	Modification time:	15. 06. 2019 21:16

#	Program:	/corina/corina34_cracker 3.40 0067  02.08.2006

@<TRIPOS>MOLECULE
ASD08150706
  25   26    0    0    0
SMALL
NO_CHARGES


@<TRIPOS>ATOM
   1 C1            -0.0158     1.3154     0.0093 C.2     
   2 N2             0.0021    -0.0041     0.0020 N.2     
   3 C3             1.1439    -0.6818    -0.0126 C.2     
   4 C4             2.3360     0.0112    -0.0203 C.2     
   5 C5             2.3148     1.4075    -0.0125 C.2     
   6 N6             1.1198     2.0671     0.0025 N.am    
   7 S7            -1.3599     2.4704     0.0209 S.3     
   8 C8             0.9258     3.4261     0.0109 C.2     
   9 C9            -0.3088     3.8972     0.0234 C.2     
  10 O10            3.3616     2.0361    -0.0188 O.2     
  11 C11            2.1033     4.3667     0.0047 C.3     
  12 Br12           3.9820    -0.9193    -0.0404 Br      
  13 C13            1.1370    -2.1888    -0.0201 C.3     
  14 C14            0.5378    -2.7026     1.2906 C.3     
  15 N15            0.3315    -2.6678    -1.1461 N.2     
  16 N16            0.2753    -3.7681    -1.3690 N.1     
  17 N17            0.2191    -4.8683    -1.5920 N.pl3   
  18 H18           -0.6131     4.9335     0.0299 H       
  19 H19            2.3776     4.5985    -1.0245 H       
  20 H20            1.8365     5.2863     0.5255 H       
  21 H21            2.9473     3.8956     0.5084 H       
  22 H22            2.1581    -2.5563    -0.1215 H       
  23 H23           -0.4833    -2.3351     1.3920 H       
  24 H24            0.5328    -3.7926     1.2852 H       
  25 H25            1.1371    -2.3462     2.1284 H       
@<TRIPOS>BOND
   1    1    2 2
   2    1    6 1
   3    1    7 1
   4    2    3 1
   5    3    4 2
   6    3   13 1
   7    4    5 1
   8    4   12 1
   9    5    6 am
  10    5   10 2
  11    6    8 1
  12    7    9 1
  13    8    9 2
  14    8   11 1
  15    9   18 1
  16   11   19 1
  17   11   20 1
  18   11   21 1
  19   13   14 1
  20   13   15 1
  21   13   22 1
  22   14   23 1
  23   14   24 1
  24   14   25 1
  25   15   16 2
  26   16   17 2

#	End of record

