#	Name: ASD02448017
#	Creating user name:	WinNT
#	Creation time:	15. 06. 2019 20:21

#	Modifying user name:	WinNT
#	Modification time:	15. 06. 2019 20:21

#	Program:	/corina/corina34_cracker 3.40 0067  02.08.2006

@<TRIPOS>MOLECULE
ASD02448017
  78   84    0    0    0
SMALL
NO_CHARGES


@<TRIPOS>ATOM
   1 C1             3.3184    -7.4088    -1.0969 C.ar    
   2 C2             2.8034    -6.2968    -0.4614 C.ar    
   3 C3             2.1992    -5.2907    -1.2032 C.ar    
   4 C4             2.1127    -5.4025    -2.5843 C.ar    
   5 C5             2.6279    -6.5140    -3.2206 C.ar    
   6 C6             3.2325    -7.5208    -2.4788 C.ar    
   7 N7             3.7544    -8.6467    -3.1229 N.am    
   8 C8             4.8247    -9.5379    -2.6568 C.3     
   9 C9             5.0887   -10.6313    -3.6412 C.2     
  10 N10            4.3196   -10.5968    -4.7385 N.am    
  11 S11            3.2991    -9.2897    -4.5934 S.o2    
  12 O12            5.9331   -11.4831    -3.4613 O.2     
  13 O13            1.9815    -9.8008    -4.4458 O.2     
  14 O14            3.6780    -8.3494    -5.5893 O.2     
  15 N15            1.6753    -4.1605    -0.5566 N.pl3   
  16 C16            0.7444    -4.1584     0.4469 C.2     
  17 C17            2.0022    -2.8657    -0.8066 C.2     
  18 N18            1.3136    -2.0957    -0.0110 N.2     
  19 C19            0.5274    -2.8580     0.7757 C.2     
  20 C20           -0.4082    -2.3646     1.8160 C.ar    
  21 C21           -0.5332    -0.9956     2.0527 C.ar    
  22 C22           -1.1694    -3.2664     2.5564 C.ar    
  23 C23           -2.0383    -2.8018     3.5232 C.ar    
  24 C24           -2.1549    -1.4437     3.7577 C.ar    
  25 C25           -1.4058    -0.5426     3.0225 C.ar    
  26 C26            2.9985    -2.3961    -1.8352 C.3     
  27 C27            4.3371    -2.1822    -1.1769 C.ar    
  28 C28            5.2089    -3.2455    -1.0265 C.ar    
  29 C29            4.6919    -0.9219    -0.7305 C.ar    
  30 C30            5.9167    -0.7202    -0.1273 C.ar    
  31 C31            6.7966    -1.7889     0.0316 C.ar    
  32 C32            6.4363    -3.0551    -0.4247 C.ar    
  33 C33            8.1151    -1.5779     0.6789 C.ar    
  34 C34            8.9950    -2.6466     0.8378 C.ar    
  35 C35            8.4802    -0.3093     1.1249 C.ar    
  36 C36            9.7078    -0.1189     1.7263 C.ar    
  37 C37           10.5752    -1.1844     1.8862 C.ar    
  38 C38           10.2201    -2.4448     1.4406 C.ar    
  39 C39           11.9146    -0.9700     2.5428 C.3     
  40 C40           12.0140    -1.8427     3.7955 C.3     
  41 C41           13.3739    -1.6250     4.4621 C.3     
  42 C42           14.4877    -2.0066     3.4850 C.3     
  43 C43           14.3883    -1.1339     2.2322 C.3     
  44 C44           13.0284    -1.3515     1.5657 C.3     
  45 Cl45           0.4063     0.1361     1.1305 Cl      
  46 H46            3.7921    -8.1894    -0.5202 H       
  47 H47            2.8701    -6.2096     0.6130 H       
  48 H48            1.6420    -4.6200    -3.1609 H       
  49 H49            2.5603    -6.6010    -4.2950 H       
  50 H50            5.7363    -8.9574    -2.5152 H       
  51 H51            4.5326    -9.9785    -1.7036 H       
  52 H52            4.3500   -11.2212    -5.4802 H       
  53 H53            0.2737    -5.0229     0.8913 H       
  54 H54           -1.0801    -4.3271     2.3741 H       
  55 H55           -2.6288    -3.5003     4.0976 H       
  56 H56           -2.8366    -1.0851     4.5147 H       
  57 H57           -1.5008     0.5168     3.2098 H       
  58 H58            3.0947    -3.1486    -2.6179 H       
  59 H59            2.6548    -1.4588    -2.2726 H       
  60 H60            4.9284    -4.2266    -1.3802 H       
  61 H61            4.0092    -0.0943    -0.8545 H       
  62 H62            6.1929     0.2643     0.2206 H       
  63 H63            7.1143    -3.8870    -0.3037 H       
  64 H64            8.7187    -3.6311     0.4903 H       
  65 H65            7.8039     0.5234     0.9999 H       
  66 H66            9.9917     0.8640     2.0724 H       
  67 H67           10.9010    -3.2733     1.5683 H       
  68 H68           12.0190     0.0787     2.8212 H       
  69 H69           11.2205    -1.5708     4.4916 H       
  70 H70           11.9096    -2.8913     3.5170 H       
  71 H71           13.4784    -0.5763     4.7405 H       
  72 H72           13.4448    -2.2467     5.3546 H       
  73 H73           15.4565    -1.8515     3.9598 H       
  74 H74           14.3833    -3.0552     3.2065 H       
  75 H75           14.4927    -0.0852     2.5107 H       
  76 H76           15.1818    -1.4057     1.5361 H       
  77 H77           12.9240    -2.4002     1.2872 H       
  78 H78           12.9576    -0.7298     0.6732 H       
@<TRIPOS>BOND
   1    1    2 ar
   2    1    6 ar
   3    1   46 1
   4    2    3 ar
   5    2   47 1
   6    3    4 ar
   7    3   15 1
   8    4    5 ar
   9    4   48 1
  10    5    6 ar
  11    5   49 1
  12    6    7 1
  13    7    8 1
  14    7   11 am
  15    8    9 1
  16    8   50 1
  17    8   51 1
  18    9   10 am
  19    9   12 2
  20   10   11 am
  21   10   52 1
  22   11   13 2
  23   11   14 2
  24   15   16 1
  25   15   17 1
  26   16   19 2
  27   16   53 1
  28   17   18 2
  29   17   26 1
  30   18   19 1
  31   19   20 1
  32   20   21 ar
  33   20   22 ar
  34   21   45 1
  35   21   25 ar
  36   22   23 ar
  37   22   54 1
  38   23   24 ar
  39   23   55 1
  40   24   25 ar
  41   24   56 1
  42   25   57 1
  43   26   27 1
  44   26   58 1
  45   26   59 1
  46   27   28 ar
  47   27   29 ar
  48   28   32 ar
  49   28   60 1
  50   29   30 ar
  51   29   61 1
  52   30   31 ar
  53   30   62 1
  54   31   32 ar
  55   31   33 1
  56   32   63 1
  57   33   34 ar
  58   33   35 ar
  59   34   38 ar
  60   34   64 1
  61   35   36 ar
  62   35   65 1
  63   36   37 ar
  64   36   66 1
  65   37   38 ar
  66   37   39 1
  67   38   67 1
  68   39   40 1
  69   39   44 1
  70   39   68 1
  71   40   41 1
  72   40   69 1
  73   40   70 1
  74   41   42 1
  75   41   71 1
  76   41   72 1
  77   42   43 1
  78   42   73 1
  79   42   74 1
  80   43   44 1
  81   43   75 1
  82   43   76 1
  83   44   77 1
  84   44   78 1

#	End of record

