#	Name: ASD03090642
#	Creating user name:	WinNT
#	Creation time:	15. 06. 2019 20:29

#	Modifying user name:	WinNT
#	Modification time:	15. 06. 2019 20:29

#	Program:	/corina/corina34_cracker 3.40 0067  02.08.2006

@<TRIPOS>MOLECULE
ASD03090642
  35   36    0    0    0
SMALL
NO_CHARGES


@<TRIPOS>ATOM
   1 N1            -0.0162     1.3436     0.0094 N.am    
   2 C2             0.0195     0.1477     0.6300 C.2     
   3 O3             1.0731    -0.2852     1.0558 O.2     
   4 N4            -1.1126    -0.5684     0.7787 N.am    
   5 S5             0.3548    -2.5852     2.0980 S.3     
   6 C6            -0.5920    -3.9180     2.5977 C.2     
   7 N7            -1.8252    -3.7399     2.2672 N.2     
   8 C8            -2.1243    -2.6214     1.6356 C.2     
   9 C9            -1.0756    -1.8092     1.4226 C.2     
  10 C10           -0.0607    -5.1284     3.3214 C.3     
  11 C11            1.1452     2.1274    -0.0708 C.ar    
  12 C12            1.0451     3.5108    -0.1994 C.ar    
  13 C13            2.1926     4.2820    -0.2779 C.ar    
  14 C14            3.4393     3.6763    -0.2285 C.ar    
  15 C15            3.5378     2.2981    -0.1004 C.ar    
  16 C16            2.3934     1.5260    -0.0165 C.ar    
  17 O17            4.5661     4.4337    -0.3060 O.3     
  18 C18            4.3909     5.8458    -0.4373 C.3     
  19 O19           -0.1781     4.1032    -0.2482 O.3     
  20 C20           -0.2051     5.5258    -0.3808 C.3     
  21 Cl21           5.0996     1.5426    -0.0387 Cl      
  22 H22           -0.8436     1.6607    -0.3852 H       
  23 H23           -1.9530    -0.2231     0.4391 H       
  24 H24           -3.1272    -2.3792     1.3163 H       
  25 H25           -0.1074    -4.9582     4.3970 H       
  26 H26           -0.6642    -5.9991     3.0648 H       
  27 H27            0.9737    -5.3035     3.0259 H       
  28 H28            2.1167     5.3547    -0.3780 H       
  29 H29            2.4720     0.4539     0.0877 H       
  30 H30            5.3662     6.3298    -0.4884 H       
  31 H31            3.8312     6.0594    -1.3479 H       
  32 H32            3.8416     6.2254     0.4242 H       
  33 H33           -1.2394     5.8687    -0.4073 H       
  34 H34            0.3065     5.9796     0.4680 H       
  35 H35            0.2971     5.8142    -1.3042 H       
@<TRIPOS>BOND
   1    1    2 am
   2    1   11 1
   3    1   22 1
   4    2    3 2
   5    2    4 am
   6    4    9 1
   7    4   23 1
   8    5    6 1
   9    5    9 1
  10    6    7 2
  11    6   10 1
  12    7    8 1
  13    8    9 2
  14    8   24 1
  15   10   25 1
  16   10   26 1
  17   10   27 1
  18   11   12 ar
  19   11   16 ar
  20   12   13 ar
  21   12   19 1
  22   13   14 ar
  23   13   28 1
  24   14   15 ar
  25   14   17 1
  26   15   16 ar
  27   15   21 1
  28   16   29 1
  29   17   18 1
  30   18   30 1
  31   18   31 1
  32   18   32 1
  33   19   20 1
  34   20   33 1
  35   20   34 1
  36   20   35 1

#	End of record

