#	Name: ASD01915519
#	Creating user name:	WinNT
#	Creation time:	15. 06. 2019 20:05

#	Modifying user name:	WinNT
#	Modification time:	15. 06. 2019 20:05

#	Program:	/corina/corina34_cracker 3.40 0067  02.08.2006

@<TRIPOS>MOLECULE
ASD01915519
  47   50    0    0    0
SMALL
NO_CHARGES


@<TRIPOS>ATOM
   1 C1            -0.0042     1.4684     0.2344 C.2     
   2 N2             0.0660     0.1189    -0.0301 N.pl3   
   3 C3            -1.1432    -0.6640    -0.3124 C.3     
   4 C4            -2.3281    -0.0486     0.4301 C.3     
   5 N5            -2.4044     1.3988     0.2637 N.am    
   6 C6            -1.2934     2.1741     0.2858 C.2     
   7 C7             1.2763     1.9056     0.4250 C.2     
   8 C8             2.0758     0.7647     0.2731 C.2     
   9 N9             1.2863    -0.2507     0.0107 N.2     
  10 C10            3.5774     0.7127     0.3898 C.3     
  11 O11            4.0778     2.0186     0.6831 O.3     
  12 C12            5.4237     2.1470     0.8213 C.ar    
  13 C13           -3.6541     2.0003     0.0770 C.ar    
  14 O14           -1.3588     3.3874     0.3456 O.2     
  15 C15            5.9779     3.3864     1.1064 C.ar    
  16 C16            6.2452     1.0376     0.6832 C.ar    
  17 C17            7.6130     1.1707     0.8241 C.ar    
  18 C18            8.1633     2.4081     1.1026 C.ar    
  19 C19            7.3462     3.5142     1.2464 C.ar    
  20 C20           -3.9647     2.5956    -1.1386 C.ar    
  21 C21           -5.1987     3.1882    -1.3209 C.ar    
  22 C22           -6.1261     3.1891    -0.2926 C.ar    
  23 C23           -5.8186     2.5961     0.9204 C.ar    
  24 C24           -4.5876     1.9977     1.1052 C.ar    
  25 F25           -7.3326     3.7698    -0.4728 F       
  26 C26           -1.4205    -0.6506    -1.8170 C.3     
  27 C27           -0.9393    -2.1058     0.1572 C.3     
  28 H28           -3.2490    -0.4952     0.0552 H       
  29 H29           -2.2353    -0.2766     1.4919 H       
  30 H30            1.6016     2.9118     0.6446 H       
  31 H31            3.8560     0.0283     1.1911 H       
  32 H32            4.0030     0.3633    -0.5509 H       
  33 H33            5.3401     4.2507     1.2185 H       
  34 H34            5.8158     0.0707     0.4660 H       
  35 H35            8.2530     0.3073     0.7170 H       
  36 H36            9.2329     2.5101     1.2124 H       
  37 H37            7.7785     4.4798     1.4636 H       
  38 H38           -3.2415     2.5954    -1.9408 H       
  39 H39           -5.4405     3.6516    -2.2660 H       
  40 H40           -6.5432     2.5983     1.7212 H       
  41 H41           -4.3483     1.5350     2.0512 H       
  42 H42           -0.5736    -1.0870    -2.3464 H       
  43 H43           -2.3185    -1.2320    -2.0261 H       
  44 H44           -1.5670     0.3768    -2.1503 H       
  45 H45           -0.7433    -2.1144     1.2294 H       
  46 H46           -1.8374    -2.6867    -0.0526 H       
  47 H47           -0.0920    -2.5435    -0.3706 H       
@<TRIPOS>BOND
   1    1    2 1
   2    1    7 2
   3    1    6 1
   4    2    3 1
   5    2    9 1
   6    3    4 1
   7    3   26 1
   8    3   27 1
   9    4    5 1
  10    4   28 1
  11    4   29 1
  12    5    6 am
  13    5   13 1
  14    6   14 2
  15    7    8 1
  16    7   30 1
  17    8    9 2
  18    8   10 1
  19   10   11 1
  20   10   31 1
  21   10   32 1
  22   11   12 1
  23   12   15 ar
  24   12   16 ar
  25   13   20 ar
  26   13   24 ar
  27   15   19 ar
  28   15   33 1
  29   16   17 ar
  30   16   34 1
  31   17   18 ar
  32   17   35 1
  33   18   19 ar
  34   18   36 1
  35   19   37 1
  36   20   21 ar
  37   20   38 1
  38   21   22 ar
  39   21   39 1
  40   22   23 ar
  41   22   25 1
  42   23   24 ar
  43   23   40 1
  44   24   41 1
  45   26   42 1
  46   26   43 1
  47   26   44 1
  48   27   45 1
  49   27   46 1
  50   27   47 1

#	End of record

