#	Name: ASD00840666
#	Creating user name:	WinNT
#	Creation time:	15. 06. 2019 18:39

#	Modifying user name:	WinNT
#	Modification time:	15. 06. 2019 18:39

#	Program:	/corina/corina34_cracker 3.40 0067  02.08.2006

@<TRIPOS>MOLECULE
ASD00840666
  85   90    0    0    0
SMALL
NO_CHARGES


@<TRIPOS>ATOM
   1 N1             1.0667     1.4584    -0.7464 N.ar    
   2 C2             1.3273     0.1664    -0.8552 C.ar    
   3 C3             1.2457    -0.6679     0.2525 C.ar    
   4 C4             0.8873    -0.1295     1.4758 C.ar    
   5 C5             0.6218     1.2312     1.5481 C.ar    
   6 C6             0.7225     2.0006     0.4064 C.ar    
   7 C7             1.5431    -2.1396     0.1236 C.3     
   8 C8             1.2604    -2.8544     1.4279 C.2     
   9 C9             0.7233    -2.7535    -1.0130 C.3     
  10 C10           -0.7388    -2.4634    -0.7913 C.2     
  11 N11           -1.6629    -2.9847    -1.6224 N.am    
  12 O12           -1.0840    -1.7607     0.1350 O.2     
  13 C13           -3.0803    -2.6221    -1.4879 C.3     
  14 C14           -3.9086    -3.9055    -1.3707 C.3     
  15 C15           -3.6030    -4.8156    -2.5626 C.3     
  16 C16           -2.1204    -5.1948    -2.5501 C.3     
  17 C17           -1.2711    -3.9217    -2.6842 C.3     
  18 N18           -4.4203    -6.0329    -2.4709 N.3     
  19 C19           -4.2417    -6.8778    -3.6600 C.3     
  20 C20           -5.0457    -8.1690    -3.4904 C.3     
  21 N21           -6.4635    -7.8377    -3.2913 N.3     
  22 C22           -6.6420    -6.9928    -2.1023 C.3     
  23 C23           -5.8381    -5.7015    -2.2719 C.3     
  24 H24           -6.8498    -7.3944    -4.1113 H       
  25 O25            0.1881    -2.9307     1.9894 O.2     
  26 N26            2.4195    -3.3889     1.8463 N.am    
  27 C27            3.0208    -2.3638    -0.1039 C.ar    
  28 C28            3.4713    -3.1217     0.9743 C.ar    
  29 C29            3.8783    -1.9735    -1.1010 C.ar    
  30 C30            5.2280    -2.3387    -1.0409 C.ar    
  31 C31            5.6879    -3.1005     0.0399 C.ar    
  32 C32            4.8160    -3.4876     1.0349 C.ar    
  33 F33            6.9890    -3.4582     0.1072 F       
  34 C34            2.2854    -5.9545     2.8332 C.ar    
  35 C35            1.0318    -6.3543     2.3941 C.ar    
  36 C36            3.3048    -6.8805     2.9444 C.ar    
  37 C37            3.0765    -8.2043     2.6181 C.ar    
  38 C38            1.8276    -8.6054     2.1801 C.ar    
  39 C39            0.8050    -7.6837     2.0676 C.ar    
  40 H40            1.6517    -9.6401     1.9257 H       
  41 O41            0.0273    -5.4456     2.2843 O.3     
  42 C42           -1.2371    -5.9284     1.8257 C.3     
  43 O43            1.6773    -0.3493    -2.0604 O.3     
  44 C44            2.1707    -0.1850    -4.4205 C.3     
  45 C45            1.6356     0.5358    -3.1816 C.3     
  46 S46            2.5794    -4.2660     3.2418 S.o2    
  47 O47            3.9469    -4.1763     3.6177 O.2     
  48 O48            1.5122    -3.8669     4.0910 O.2     
  49 C49            6.1312    -1.9367    -2.0769 C.1     
  50 N50            6.8477    -1.6179    -2.8987 N.1     
  51 H51            0.8153    -0.7537     2.3542 H       
  52 H52            0.3391     1.6830     2.4875 H       
  53 H53            0.5174     3.0597     0.4573 H       
  54 H54            1.0393    -2.3223    -1.9629 H       
  55 H55            0.8807    -3.8319    -1.0332 H       
  56 H56           -3.2188    -2.0149    -0.5933 H       
  57 H57           -3.3988    -2.0605    -2.3661 H       
  58 H58           -3.6527    -4.4204    -0.4447 H       
  59 H59           -4.9694    -3.6548    -1.3670 H       
  60 H60           -3.8359    -4.2910    -3.4892 H       
  61 H61           -1.8813    -5.6976    -1.6130 H       
  62 H62           -1.9084    -5.8618    -3.3858 H       
  63 H63           -1.4433    -3.4687    -3.6605 H       
  64 H64           -0.2160    -4.1733    -2.5768 H       
  65 H65           -4.5941    -6.3433    -4.5422 H       
  66 H66           -3.1856    -7.1199    -3.7788 H       
  67 H67           -4.9379    -8.7845    -4.3835 H       
  68 H68           -4.6752    -8.7169    -2.6240 H       
  69 H69           -7.6981    -6.7507    -1.9834 H       
  70 H70           -6.2897    -7.5273    -1.2201 H       
  71 H71           -5.9458    -5.0861    -1.3788 H       
  72 H72           -6.2086    -5.1537    -3.1383 H       
  73 H73            3.5127    -1.3862    -1.9304 H       
  74 H74            5.1761    -4.0754     1.8664 H       
  75 H75            4.2810    -6.5697     3.2863 H       
  76 H76            3.8748    -8.9264     2.7050 H       
  77 H77           -0.1703    -7.9975     1.7262 H       
  78 H78           -1.1223    -6.3597     0.8313 H       
  79 H79           -1.6055    -6.6907     2.5121 H       
  80 H80           -1.9477    -5.1030     1.7840 H       
  81 H81            2.2209     0.5148    -5.2547 H       
  82 H82            3.1674    -0.5742    -4.2123 H       
  83 H83            1.5052    -1.0092    -4.6772 H       
  84 H84            0.6067     0.8487    -3.3594 H       
  85 H85            2.2514     1.4114    -2.9763 H       
@<TRIPOS>BOND
   1    1    2 ar
   2    1    6 ar
   3    2    3 ar
   4    2   43 1
   5    3    4 ar
   6    3    7 1
   7    4    5 ar
   8    4   51 1
   9    5    6 ar
  10    5   52 1
  11    6   53 1
  12    7    8 1
  13    7    9 1
  14    7   27 1
  15    8   25 2
  16    8   26 am
  17    9   10 1
  18    9   54 1
  19    9   55 1
  20   10   11 am
  21   10   12 2
  22   11   13 1
  23   11   17 1
  24   13   14 1
  25   13   56 1
  26   13   57 1
  27   14   15 1
  28   14   58 1
  29   14   59 1
  30   15   16 1
  31   15   18 1
  32   15   60 1
  33   16   17 1
  34   16   61 1
  35   16   62 1
  36   17   63 1
  37   17   64 1
  38   18   19 1
  39   18   23 1
  40   19   20 1
  41   19   65 1
  42   19   66 1
  43   20   21 1
  44   20   67 1
  45   20   68 1
  46   21   22 1
  47   21   24 1
  48   22   23 1
  49   22   69 1
  50   22   70 1
  51   23   71 1
  52   23   72 1
  53   26   46 am
  54   26   28 1
  55   27   28 ar
  56   27   29 ar
  57   28   32 ar
  58   29   30 ar
  59   29   73 1
  60   30   31 ar
  61   30   49 1
  62   31   32 ar
  63   31   33 1
  64   32   74 1
  65   34   35 ar
  66   34   36 ar
  67   34   46 1
  68   35   41 1
  69   35   39 ar
  70   36   37 ar
  71   36   75 1
  72   37   38 ar
  73   37   76 1
  74   38   39 ar
  75   38   40 1
  76   39   77 1
  77   41   42 1
  78   42   78 1
  79   42   79 1
  80   42   80 1
  81   43   45 1
  82   44   45 1
  83   44   81 1
  84   44   82 1
  85   44   83 1
  86   45   84 1
  87   45   85 1
  88   46   47 2
  89   46   48 2
  90   49   50 3

#	End of record

