#	Name: ASD08070318
#	Creating user name:	WinNT
#	Creation time:	15. 06. 2019 21:14

#	Modifying user name:	WinNT
#	Modification time:	15. 06. 2019 21:14

#	Program:	/corina/corina34_cracker 3.40 0067  02.08.2006

@<TRIPOS>MOLECULE
ASD08070318
  48   49    0    0    0
SMALL
NO_CHARGES


@<TRIPOS>ATOM
   1 C1            -0.0167     1.3770     0.0096 C.ar    
   2 C2             0.0021    -0.0041     0.0020 C.ar    
   3 C3             1.2082    -0.6803    -0.0131 C.ar    
   4 C4             2.3980     0.0237    -0.0207 C.ar    
   5 C5             2.3846     1.4052    -0.0127 C.ar    
   6 C6             1.1761     2.0859     0.0020 C.ar    
   7 C7            -1.2930    -0.7746     0.0107 C.3     
   8 O8             1.1603     3.4448     0.0095 O.3     
   9 C9            -0.1203     4.0786     0.0246 C.3     
  10 C10            3.6820     2.1720    -0.0200 C.3     
  11 N11            3.9925     2.6192     1.3401 N.am    
  12 C12            5.1137     3.3288     1.5766 C.2     
  13 C13            5.4305     3.7850     2.9641 C.2     
  14 O14            5.8659     3.5973     0.6630 O.2     
  15 N15            6.5517     4.4946     3.2006 N.am    
  16 O16            4.6783     3.5165     3.8777 O.2     
  17 C17            6.8622     4.9418     4.5607 C.3     
  18 C18            8.1794     5.7203     4.5533 C.3     
  19 C19            8.4989     6.1803     5.9524 C.ar    
  20 C20            9.7157     5.8510     6.5184 C.ar    
  21 C21            9.9998     6.2791     7.8063 C.ar    
  22 C22            9.0450     7.0257     8.4792 C.ar    
  23 C23            7.8499     7.3164     7.8484 C.ar    
  24 N24            7.6160     6.8970     6.6204 N.ar    
  25 C25            9.3064     7.5137     9.8808 C.3     
  26 H26           -0.9589     1.9047     0.0170 H       
  27 H27            1.2208    -1.7602    -0.0187 H       
  28 H28            3.3387    -0.5068    -0.0325 H       
  29 H29           -1.6154    -0.9549    -1.0147 H       
  30 H30           -1.1451    -1.7280     0.5180 H       
  31 H31           -2.0551    -0.1983     0.5353 H       
  32 H32           -0.6820     3.7841    -0.8618 H       
  33 H33           -0.6657     3.7745     0.9180 H       
  34 H34            0.0099     5.1608     0.0292 H       
  35 H35            4.4829     1.5275    -0.3823 H       
  36 H36            3.5883     3.0383    -0.6748 H       
  37 H37            3.3913     2.4045     2.0704 H       
  38 H38            7.1529     4.7093     2.4703 H       
  39 H39            6.0613     5.5862     4.9231 H       
  40 H40            6.9559     4.0755     5.2155 H       
  41 H41            8.9803     5.0758     4.1910 H       
  42 H42            8.0857     6.5866     3.8985 H       
  43 H43           10.4362     5.2672     5.9648 H       
  44 H44           10.9425     6.0365     8.2743 H       
  45 H45            7.1007     7.8971     8.3659 H       
  46 H46            9.7790     8.4952     9.8416 H       
  47 H47            8.3632     7.5860    10.4222 H       
  48 H48            9.9662     6.8129    10.3924 H       
@<TRIPOS>BOND
   1    1    2 ar
   2    1    6 ar
   3    1   26 1
   4    2    3 ar
   5    2    7 1
   6    3    4 ar
   7    3   27 1
   8    4    5 ar
   9    4   28 1
  10    5    6 ar
  11    5   10 1
  12    6    8 1
  13    7   29 1
  14    7   30 1
  15    7   31 1
  16    8    9 1
  17    9   32 1
  18    9   33 1
  19    9   34 1
  20   10   11 1
  21   10   35 1
  22   10   36 1
  23   11   12 am
  24   11   37 1
  25   12   13 1
  26   12   14 2
  27   13   15 am
  28   13   16 2
  29   15   17 1
  30   15   38 1
  31   17   18 1
  32   17   39 1
  33   17   40 1
  34   18   19 1
  35   18   41 1
  36   18   42 1
  37   19   20 ar
  38   19   24 ar
  39   20   21 ar
  40   20   43 1
  41   21   22 ar
  42   21   44 1
  43   22   23 ar
  44   22   25 1
  45   23   24 ar
  46   23   45 1
  47   25   46 1
  48   25   47 1
  49   25   48 1

#	End of record

