#	Name: ASD09720058
#	Creating user name:	WinNT
#	Creation time:	15. 06. 2019 21:22

#	Modifying user name:	WinNT
#	Modification time:	15. 06. 2019 21:22

#	Program:	/corina/corina34_cracker 3.40 0067  02.08.2006

@<TRIPOS>MOLECULE
ASD09720058
  46   47    0    0    0
SMALL
NO_CHARGES


@<TRIPOS>ATOM
   1 C1             0.0213     0.9973    -0.7205 C.ar    
   2 C2             0.1739    -0.4551    -0.9290 C.2     
   3 N3            -0.5070    -1.2872    -0.2091 N.2     
   4 C4             1.1229    -0.9698    -1.9805 C.3     
   5 O5            -1.3082    -0.8104     0.8567 O.3     
   6 S6             1.0862    -2.7834    -1.9926 S.3     
   7 C7             2.2371    -3.1947    -3.2618 C.ar    
   8 C8             2.4858    -4.5264    -3.5717 C.ar    
   9 C9             3.3884    -4.8450    -4.5669 C.ar    
  10 C10            4.0451    -3.8407    -5.2546 C.ar    
  11 C11            3.8005    -2.5143    -4.9486 C.ar    
  12 C12            2.8942    -2.1881    -3.9591 C.ar    
  13 C13            1.1093     1.8510    -0.9161 C.ar    
  14 C14            0.9628     3.2074    -0.7207 C.ar    
  15 C15           -0.2645     3.7262    -0.3295 C.ar    
  16 C16           -1.3503     2.8804    -0.1336 C.ar    
  17 C17           -1.2136     1.5233    -0.3324 C.ar    
  18 C18            2.1363     4.1290    -0.9316 C.3     
  19 C19            3.3829     3.3021    -1.2530 C.3     
  20 C20            1.8384     5.0760    -2.0958 C.3     
  21 C21            2.3792     4.9446     0.3399 C.3     
  22 Br22          -3.0185     3.5934     0.3997 Br      
  23 O23           -0.4043     5.0634    -0.1373 O.3     
  24 C24           -1.1034     5.7944    -1.1467 C.3     
  25 H25            0.8208    -0.5938    -2.9580 H       
  26 H26            2.1335    -0.6283    -1.7564 H       
  27 H27           -1.7789    -1.5056     1.3364 H       
  28 H28            1.9739    -5.3112    -3.0346 H       
  29 H29            3.5822    -5.8797    -4.8083 H       
  30 H30            4.7508    -4.0928    -6.0323 H       
  31 H31            4.3153    -1.7326    -5.4874 H       
  32 H32            2.7037    -1.1521    -3.7206 H       
  33 H33            2.0645     1.4486    -1.2197 H       
  34 H34           -2.0574     0.8667    -0.1802 H       
  35 H35            3.2099     2.7210    -2.1588 H       
  36 H36            4.2317     3.9687    -1.4055 H       
  37 H37            3.5951     2.6275    -0.4235 H       
  38 H38            1.0763     5.7944    -1.7939 H       
  39 H39            2.7486     5.6072    -2.3741 H       
  40 H40            1.4781     4.5009    -2.9488 H       
  41 H41            2.5914     4.2700     1.1693 H       
  42 H42            3.2280     5.6112     0.1874 H       
  43 H43            1.4912     5.5337     0.5688 H       
  44 H44           -1.1455     6.8476    -0.8692 H       
  45 H45           -0.5818     5.6898    -2.0981 H       
  46 H46           -2.1163     5.4032    -1.2428 H       
@<TRIPOS>BOND
   1    1    2 1
   2    1   13 ar
   3    1   17 ar
   4    2    3 2
   5    2    4 1
   6    3    5 1
   7    4    6 1
   8    4   25 1
   9    4   26 1
  10    5   27 1
  11    6    7 1
  12    7    8 ar
  13    7   12 ar
  14    8    9 ar
  15    8   28 1
  16    9   10 ar
  17    9   29 1
  18   10   11 ar
  19   10   30 1
  20   11   12 ar
  21   11   31 1
  22   12   32 1
  23   13   14 ar
  24   13   33 1
  25   14   15 ar
  26   14   18 1
  27   15   16 ar
  28   15   23 1
  29   16   17 ar
  30   16   22 1
  31   17   34 1
  32   18   19 1
  33   18   20 1
  34   18   21 1
  35   19   35 1
  36   19   36 1
  37   19   37 1
  38   20   38 1
  39   20   39 1
  40   20   40 1
  41   21   41 1
  42   21   42 1
  43   21   43 1
  44   23   24 1
  45   24   44 1
  46   24   45 1
  47   24   46 1

#	End of record

