#	Name: ASD00431225
#	Creating user name:	WinNT
#	Creation time:	15. 06. 2019 18:35

#	Modifying user name:	WinNT
#	Modification time:	15. 06. 2019 18:35

#	Program:	/corina/corina34_cracker 3.40 0067  02.08.2006

@<TRIPOS>MOLECULE
ASD00431225
  33   34    0    0    0
SMALL
NO_CHARGES


@<TRIPOS>ATOM
   1 S1            -1.9294     1.4583     1.1857 S.3     
   2 C2            -1.6250    -0.2151     1.0151 C.2     
   3 N3            -1.9464    -0.8459     2.1039 N.2     
   4 C4            -2.4236    -0.1280     3.0938 C.2     
   5 C5            -2.5127     1.1966     2.8275 C.2     
   6 C6            -3.0065     2.2303     3.7434 C.2     
   7 Cl7           -3.5453     1.7942     5.3350 Cl      
   8 N8            -3.0406     3.4723     3.3636 N.2     
   9 O9            -1.1211    -0.7998    -0.0970 O.3     
  10 C10           -0.8377    -2.1287    -0.0469 C.ar    
  11 C11           -1.8624    -3.0512     0.1063 C.ar    
  12 C12           -1.5745    -4.4011     0.1566 C.ar    
  13 C13           -0.2608    -4.8343     0.0541 C.ar    
  14 C14            0.7639    -3.9120    -0.0986 C.ar    
  15 C15            0.4756    -2.5624    -0.1548 C.ar    
  16 O16            0.0226    -6.1633     0.1037 O.3     
  17 C17           -1.0608    -7.0470     0.3992 C.3     
  18 C18           -1.6793    -7.5501    -0.9067 C.3     
  19 C19           -0.5420    -8.2368     1.2093 C.3     
  20 O20           -3.5173     4.4702     4.2479 O.3     
  21 H21           -2.7204    -0.5572     4.0394 H       
  22 H22           -2.8852    -2.7139     0.1865 H       
  23 H23           -2.3722    -5.1192     0.2762 H       
  24 H24            1.7867    -4.2494    -0.1781 H       
  25 H25            1.2730    -1.8445    -0.2781 H       
  26 H26           -1.8161    -6.5152     0.9777 H       
  27 H27           -2.0489    -6.7025    -1.4839 H       
  28 H28           -0.9240    -8.0820    -1.4853 H       
  29 H29           -2.5057    -8.2242    -0.6813 H       
  30 H30           -0.1014    -7.8784     2.1396 H       
  31 H31           -1.3684    -8.9109     1.4347 H       
  32 H32            0.2133    -8.7686     0.6308 H       
  33 H33           -3.5047     5.3631     3.8769 H       
@<TRIPOS>BOND
   1    1    2 1
   2    1    5 1
   3    2    3 2
   4    2    9 1
   5    3    4 1
   6    4    5 2
   7    4   21 1
   8    5    6 1
   9    6    7 1
  10    6    8 2
  11    8   20 1
  12    9   10 1
  13   10   11 ar
  14   10   15 ar
  15   11   12 ar
  16   11   22 1
  17   12   13 ar
  18   12   23 1
  19   13   14 ar
  20   13   16 1
  21   14   15 ar
  22   14   24 1
  23   15   25 1
  24   16   17 1
  25   17   18 1
  26   17   19 1
  27   17   26 1
  28   18   27 1
  29   18   28 1
  30   18   29 1
  31   19   30 1
  32   19   31 1
  33   19   32 1
  34   20   33 1

#	End of record

