#	Name: ASD01148642
#	Creating user name:	WinNT
#	Creation time:	15. 06. 2019 19:02

#	Modifying user name:	WinNT
#	Modification time:	15. 06. 2019 19:02

#	Program:	/corina/corina34_cracker 3.40 0067  02.08.2006

@<TRIPOS>MOLECULE
ASD01148642
  61   65    0    0    0
SMALL
NO_CHARGES


@<TRIPOS>ATOM
   1 C1            -0.0169     1.4366    -0.0252 C.ar    
   2 C2             0.0192     0.0536    -0.0358 C.ar    
   3 C3            -1.1606    -0.6688    -0.0207 C.ar    
   4 C4            -2.3746    -0.0085     0.0050 C.ar    
   5 C5            -2.4101     1.3734     0.0157 C.ar    
   6 C6            -1.2314     2.0957     0.0064 C.ar    
   7 C7            -3.7341     2.0927     0.0432 C.3     
   8 O8            -4.7239     1.3245     0.7571 O.3     
   9 C9            -3.6494     3.3757     0.9039 C.3     
  10 C10           -4.1234     2.8939     2.2619 C.2     
  11 N11           -4.7055     1.7508     2.1051 N.2     
  12 C12           -3.9494     3.6059     3.5395 C.ar    
  13 C13           -4.4572     3.0250     4.7800 C.ar    
  14 C14           -3.2967     4.8304     3.5735 C.ar    
  15 C15           -3.1189     5.5206     4.7595 C.ar    
  16 C16           -3.5855     5.0183     5.9663 C.ar    
  17 C17           -4.2754     3.7310     5.9928 C.ar    
  18 C18           -3.3812     5.7764     7.2141 C.2     
  19 O19           -3.8827     5.3869     8.2513 O.2     
  20 N20           -2.6387     6.9012     7.2054 N.am    
  21 C21           -4.2089     2.4142    -1.3752 C.3     
  22 F22           -4.3419     1.2268    -2.1029 F       
  23 F23           -5.4454     3.0661    -1.3165 F       
  24 F24           -3.2737     3.2438    -2.0032 F       
  25 Cl25           1.5444    -0.7749    -0.0687 Cl      
  26 C26           -2.4357     7.6545     8.4454 C.3     
  27 C27           -1.5759     8.8601     8.1656 C.ar    
  28 N28           -0.2629     8.7392     8.1695 N.ar    
  29 C29            0.5289     9.7664     7.9302 C.ar    
  30 C30            0.0039    11.0168     7.6650 C.ar    
  31 C31           -1.3728    11.1829     7.6523 C.ar    
  32 C32           -2.1729    10.0787     7.9024 C.ar    
  33 C33           -5.1168     1.7894     4.7938 C.ar    
  34 C34           -4.7623     3.1856     7.1874 C.ar    
  35 C35           -5.5745     1.2837     5.9742 C.ar    
  36 C36           -5.4001     1.9808     7.1668 C.ar    
  37 C37            1.2678     2.2243    -0.0417 C.3     
  38 F38            0.9762     3.5924    -0.0267 F       
  39 F39            2.0296     1.8975     1.0853 F       
  40 F40            1.9901     1.9140    -1.1989 F       
  41 C41           -1.1222    -2.1752    -0.0328 C.3     
  42 F42           -2.4286    -2.6753    -0.0138 F       
  43 F43           -0.4710    -2.6158    -1.1900 F       
  44 F44           -0.4311    -2.6332     1.0941 F       
  45 H45           -3.2957    -0.5723     0.0164 H       
  46 H46           -1.2597     3.1753     0.0147 H       
  47 H47           -2.6227     3.7379     0.9586 H       
  48 H48           -4.3129     4.1477     0.5140 H       
  49 H49           -2.9192     5.2535     2.6544 H       
  50 H50           -2.6056     6.4707     4.7459 H       
  51 H51           -2.2387     7.2119     6.3782 H       
  52 H52           -3.4004     7.9789     8.8355 H       
  53 H53           -1.9418     7.0187     9.1801 H       
  54 H54            1.6000     9.6288     7.9419 H       
  55 H55            0.6575    11.8543     7.4704 H       
  56 H56           -1.8113    12.1486     7.4484 H       
  57 H57           -3.2489    10.1714     7.9001 H       
  58 H58           -5.2622     1.2409     3.8749 H       
  59 H59           -4.6331     3.7160     8.1193 H       
  60 H60           -6.0829     0.3310     5.9838 H       
  61 H61           -5.7751     1.5611     8.0885 H       
@<TRIPOS>BOND
   1    1    2 ar
   2    1   37 1
   3    1    6 ar
   4    2    3 ar
   5    2   25 1
   6    3    4 ar
   7    3   41 1
   8    4    5 ar
   9    4   45 1
  10    5    6 ar
  11    5    7 1
  12    6   46 1
  13    7    8 1
  14    7    9 1
  15    7   21 1
  16    8   11 1
  17    9   10 1
  18    9   47 1
  19    9   48 1
  20   10   11 2
  21   10   12 1
  22   12   13 ar
  23   12   14 ar
  24   13   33 ar
  25   13   17 ar
  26   14   15 ar
  27   14   49 1
  28   15   16 ar
  29   15   50 1
  30   16   17 ar
  31   16   18 1
  32   17   34 ar
  33   18   19 2
  34   18   20 am
  35   20   26 1
  36   20   51 1
  37   21   22 1
  38   21   23 1
  39   21   24 1
  40   26   27 1
  41   26   52 1
  42   26   53 1
  43   27   28 ar
  44   27   32 ar
  45   28   29 ar
  46   29   30 ar
  47   29   54 1
  48   30   31 ar
  49   30   55 1
  50   31   32 ar
  51   31   56 1
  52   32   57 1
  53   33   35 ar
  54   33   58 1
  55   34   36 ar
  56   34   59 1
  57   35   36 ar
  58   35   60 1
  59   36   61 1
  60   37   38 1
  61   37   39 1
  62   37   40 1
  63   41   42 1
  64   41   43 1
  65   41   44 1

#	End of record

