#	Name: ASD01883463
#	Creating user name:	WinNT
#	Creation time:	15. 06. 2019 19:46

#	Modifying user name:	WinNT
#	Modification time:	15. 06. 2019 19:46

#	Program:	/corina/corina34_cracker 3.40 0067  02.08.2006

@<TRIPOS>MOLECULE
ASD01883463
  63   65    0    0    0
SMALL
NO_CHARGES


@<TRIPOS>ATOM
   1 N1            -0.0080     1.3271     0.0354 N.am    
   2 C2            -0.3623     0.6471    -1.0708 C.2     
   3 C3            -1.5938    -0.0487    -1.1070 C.2     
   4 C4            -2.4239    -0.0108     0.0261 C.2     
   5 C5            -1.9981     0.7175     1.1524 C.2     
   6 C6            -0.8092     1.3586     1.1319 C.2     
   7 O7             0.3768     0.6309    -2.0406 O.2     
   8 C8            -1.9868    -0.7769    -2.2757 C.1     
   9 N9            -2.2985    -1.3546    -3.2029 N.1     
  10 N10           -3.6309    -0.6732     0.0341 N.pl3   
  11 C11           -4.8919     0.0702     0.1608 C.3     
  12 C12           -5.6944    -0.5155     1.3268 C.3     
  13 C13           -5.8708    -2.0207     1.1144 C.3     
  14 C14           -4.4985    -2.6976     1.0843 C.3     
  15 C15           -3.6827    -2.1362    -0.0901 C.3     
  16 C16            1.2701     2.0427     0.0594 C.3     
  17 C17            1.0645     3.4711    -0.4488 C.3     
  18 C18            2.3993     4.2185    -0.4237 C.3     
  19 C19            3.3655     3.5704    -1.4174 C.3     
  20 C20            2.1725     5.6807    -0.8126 C.3     
  21 C21           -6.6890    -2.5945     2.2424 C.2     
  22 N22           -6.3841    -2.5665     3.5052 N.2     
  23 O23           -7.2486    -3.1124     4.1580 O.3     
  24 C24           -8.2164    -3.5538     3.3490 C.2     
  25 N25           -7.8717    -3.2244     2.1274 N.2     
  26 C26           -9.4675    -4.2853     3.7622 C.3     
  27 C27           -9.2005    -5.7918     3.7639 C.3     
  28 C28           -8.0749    -6.1091     4.7504 C.3     
  29 C29          -10.4707    -6.5344     4.1834 C.3     
  30 C30           -8.7889    -6.2383     2.3596 C.3     
  31 H31           -2.6200     0.7608     2.0343 H       
  32 H32           -0.4930     1.9144     2.0022 H       
  33 H33           -4.6785     1.1212     0.3555 H       
  34 H34           -5.4656    -0.0236    -0.7613 H       
  35 H35           -5.1602    -0.3399     2.2606 H       
  36 H36           -6.6729    -0.0373     1.3715 H       
  37 H37           -6.3831    -2.1964     0.1685 H       
  38 H38           -3.9756    -2.5016     2.0204 H       
  39 H39           -4.6258    -3.7726     0.9564 H       
  40 H40           -4.1593    -2.4118    -1.0309 H       
  41 H41           -2.6709    -2.5405    -0.0585 H       
  42 H42            1.6512     2.0716     1.0802 H       
  43 H43            1.9865     1.5287    -0.5814 H       
  44 H44            0.6835     3.4422    -1.4696 H       
  45 H45            0.3482     3.9852     0.1920 H       
  46 H46            2.8236     4.1709     0.5793 H       
  47 H47            3.5271     2.5287    -1.1403 H       
  48 H48            2.9412     3.6181    -2.4203 H       
  49 H49            4.3164     4.1029    -1.3995 H       
  50 H50            1.4842     6.1424    -0.1046 H       
  51 H51            3.1235     6.2132    -0.7946 H       
  52 H52            1.7483     5.7284    -1.8155 H       
  53 H53           -9.7607    -3.9671     4.7627 H       
  54 H54          -10.2694    -4.0592     3.0594 H       
  55 H55           -8.3681    -5.7910     5.7508 H       
  56 H56           -7.8846    -7.1824     4.7516 H       
  57 H57           -7.1699    -5.5801     4.4515 H       
  58 H58          -11.2726    -6.3083     3.4806 H       
  59 H59          -10.2805    -7.6077     4.1846 H       
  60 H60          -10.7639    -6.2162     5.1839 H       
  61 H61           -7.8840    -5.7093     2.0607 H       
  62 H62           -8.5987    -7.3116     2.3608 H       
  63 H63           -9.5908    -6.0123     1.6568 H       
@<TRIPOS>BOND
   1    1    2 am
   2    1   16 1
   3    1    6 1
   4    2    3 1
   5    2    7 2
   6    3    4 2
   7    3    8 1
   8    4    5 1
   9    4   10 1
  10    5    6 2
  11    5   31 1
  12    6   32 1
  13    8    9 3
  14   10   11 1
  15   10   15 1
  16   11   12 1
  17   11   33 1
  18   11   34 1
  19   12   13 1
  20   12   35 1
  21   12   36 1
  22   13   14 1
  23   13   21 1
  24   13   37 1
  25   14   15 1
  26   14   38 1
  27   14   39 1
  28   15   40 1
  29   15   41 1
  30   16   17 1
  31   16   42 1
  32   16   43 1
  33   17   18 1
  34   17   44 1
  35   17   45 1
  36   18   19 1
  37   18   20 1
  38   18   46 1
  39   19   47 1
  40   19   48 1
  41   19   49 1
  42   20   50 1
  43   20   51 1
  44   20   52 1
  45   21   22 2
  46   21   25 1
  47   22   23 1
  48   23   24 1
  49   24   25 2
  50   24   26 1
  51   26   27 1
  52   26   53 1
  53   26   54 1
  54   27   28 1
  55   27   29 1
  56   27   30 1
  57   28   55 1
  58   28   56 1
  59   28   57 1
  60   29   58 1
  61   29   59 1
  62   29   60 1
  63   30   61 1
  64   30   62 1
  65   30   63 1

#	End of record

