#	Name: ASD02580009
#	Creating user name:	WinNT
#	Creation time:	15. 06. 2019 20:25

#	Modifying user name:	WinNT
#	Modification time:	15. 06. 2019 20:25

#	Program:	/corina/corina34_cracker 3.40 0067  02.08.2006

@<TRIPOS>MOLECULE
ASD02580009
  31   33    0    0    0
SMALL
NO_CHARGES


@<TRIPOS>ATOM
   1 N1            -0.0158     1.3135     0.0093 N.ar    
   2 C2             0.0021    -0.0041     0.0020 C.ar    
   3 N3             1.1271    -0.6975    -0.0120 N.ar    
   4 C4             2.3093    -0.0905    -0.0200 C.ar    
   5 C5             1.1185     2.0061     0.0022 C.ar    
   6 N6             1.4387     3.3402     0.0063 N.pl3   
   7 C7             2.3413     1.3143    -0.0132 C.ar    
   8 N8             3.3264     2.2446    -0.0182 N.2     
   9 C9             2.7988     3.4341    -0.0062 C.2     
  10 C10            0.4926     4.4586     0.0213 C.3     
  11 C11            0.0716     4.7694     1.4707 C.3     
  12 C12            0.4824     6.2477     1.6765 C.3     
  13 C13            0.5770     6.7644     0.2183 C.3     
  14 O14            1.1232     5.6392    -0.5029 O.3     
  15 C15            1.5186     7.9674     0.1330 C.3     
  16 F16            0.7557     3.9417     2.3675 F       
  17 O17            1.4980     8.4952    -1.1948 O.3     
  18 O18           -0.5202     6.9588     2.4055 O.3     
  19 N19            3.4820    -0.8251    -0.0343 N.pl3   
  20 Cl20          -1.5078    -0.8607     0.0118 Cl      
  21 H21            3.3561     4.3592    -0.0070 H       
  22 H22           -0.3855     4.2092    -0.5743 H       
  23 H23           -1.0057     4.6528     1.5884 H       
  24 H24            1.4481     6.3170     2.1772 H       
  25 H25           -0.4113     7.0215    -0.1627 H       
  26 H26            1.1915     8.7352     0.8343 H       
  27 H27            2.5320     7.6541     0.3839 H       
  28 H28            2.0735     9.2618    -1.3223 H       
  29 H29           -0.6794     6.6133     3.2945 H       
  30 H30            3.4470    -1.7945    -0.0385 H       
  31 H31            4.3389    -0.3707    -0.0400 H       
@<TRIPOS>BOND
   1    1    2 ar
   2    1    5 ar
   3    2    3 ar
   4    2   20 1
   5    3    4 ar
   6    4    7 ar
   7    4   19 1
   8    5    7 ar
   9    5    6 1
  10    6    9 1
  11    6   10 1
  12    7    8 1
  13    8    9 2
  14    9   21 1
  15   10   11 1
  16   10   14 1
  17   10   22 1
  18   11   12 1
  19   11   16 1
  20   11   23 1
  21   12   13 1
  22   12   18 1
  23   12   24 1
  24   13   14 1
  25   13   15 1
  26   13   25 1
  27   15   17 1
  28   15   26 1
  29   15   27 1
  30   17   28 1
  31   18   29 1
  32   19   30 1
  33   19   31 1

#	End of record

