#	Name: ASD09740456
#	Creating user name:	WinNT
#	Creation time:	15. 06. 2019 21:23

#	Modifying user name:	WinNT
#	Modification time:	15. 06. 2019 21:23

#	Program:	/corina/corina34_cracker 3.40 0067  02.08.2006

@<TRIPOS>MOLECULE
ASD09740456
  77   81    0    0    0
SMALL
NO_CHARGES


@<TRIPOS>ATOM
   1 N1             0.5336     1.3898     0.2155 N.2     
   2 C2             0.4247     0.1070     0.4566 C.2     
   3 C3             1.6623     1.9613     0.5299 C.2     
   4 S4             2.7491     0.7592     1.2203 S.3     
   5 C5             1.5102    -0.4767     1.0098 C.2     
   6 C6             1.9800     3.3913     0.3370 C.ar    
   7 C7             1.0332     4.2457    -0.2221 C.ar    
   8 C8             3.2296     3.8881     0.7211 C.ar    
   9 C9             3.5311     5.2208     0.5438 C.ar    
  10 C10            2.5969     6.0803    -0.0173 C.ar    
  11 C11            1.3386     5.5942    -0.4019 C.ar    
  12 O12            2.8990     7.3917    -0.1891 O.3     
  13 C13            4.2359     7.7947     0.1146 C.3     
  14 C14            4.5810     9.0563    -0.6792 C.3     
  15 C15            4.3529     8.0863     1.6120 C.3     
  16 C16            0.3728     6.4787    -0.9811 C.1     
  17 N17           -0.3934     7.1804    -1.4406 N.1     
  18 C18            1.6367    -1.9031     1.3754 C.ar    
  19 C19            2.7509    -2.6370     0.9569 C.ar    
  20 C20            2.8631    -3.9677     1.3019 C.ar    
  21 C21            1.8721    -4.5717     2.0608 C.ar    
  22 C22            0.7683    -3.8509     2.4760 C.ar    
  23 C23            0.6476    -2.5174     2.1433 C.ar    
  24 C24            3.9497    -2.2169     0.1340 C.3     
  25 C25            5.0118    -3.3092     0.3817 C.3     
  26 C26            4.1461    -4.5373     0.7348 C.3     
  27 N27            3.8648    -5.3239    -0.4687 N.am    
  28 S28            4.4689    -6.8589    -0.6146 S.o2    
  29 O29            3.9649    -7.3168    -1.8618 O.2     
  30 O30            5.8654    -6.7078    -0.3997 O.2     
  31 C31            3.7099    -7.7760     0.7541 C.3     
  32 C32            4.2779    -9.1961     0.7935 C.3     
  33 N33            3.7474    -9.9034     1.9666 N.3     
  34 C34            4.2052   -11.3096     1.9896 C.3     
  35 C35            3.0634   -12.1465     2.5956 C.3     
  36 C36            1.9293   -11.1355     2.8812 C.3     
  37 C37            2.2637    -9.9612     1.9274 C.3     
  38 N38            0.6205   -11.7158     2.5523 N.3     
  39 C39            0.3500   -12.9036     3.3733 C.3     
  40 C40           -0.4490   -10.7196     2.6992 C.3     
  41 H41           -0.4737    -0.4473     0.2287 H       
  42 H42            0.0661     3.8651    -0.5157 H       
  43 H43            3.9609     3.2247     1.1586 H       
  44 H44            4.4978     5.5981     0.8429 H       
  45 H45            4.9264     6.9955    -0.1549 H       
  46 H46            3.8905     9.8554    -0.4096 H       
  47 H47            5.6008     9.3637    -0.4475 H       
  48 H48            4.4977     8.8485    -1.7459 H       
  49 H49            4.1070     7.1876     2.1776 H       
  50 H50            5.3727     8.3937     1.8437 H       
  51 H51            3.6624     8.8855     1.8816 H       
  52 H52            1.9633    -5.6139     2.3292 H       
  53 H53            0.0018    -4.3309     3.0664 H       
  54 H54           -0.2148    -1.9539     2.4675 H       
  55 H55            3.6876    -2.1769    -0.9232 H       
  56 H56            4.3184    -1.2477     0.4701 H       
  57 H57            5.5961    -3.4932    -0.5199 H       
  58 H58            5.6591    -3.0385     1.2159 H       
  59 H59            4.6490    -5.1527     1.4808 H       
  60 H60            3.3247    -4.9456    -1.1801 H       
  61 H61            3.9283    -7.2711     1.6951 H       
  62 H62            2.6307    -7.8203     0.6075 H       
  63 H63            3.9890    -9.7282    -0.1129 H       
  64 H64            5.3651    -9.1510     0.8573 H       
  65 H65            4.4158   -11.6481     0.9752 H       
  66 H66            5.0991   -11.3990     2.6069 H       
  67 H67            2.7278   -12.9003     1.8834 H       
  68 H68            3.3910   -12.6191     3.5216 H       
  69 H69            1.9571   -10.8081     3.9205 H       
  70 H70            1.8326    -9.0308     2.2969 H       
  71 H71            1.9136   -10.1743     0.9174 H       
  72 H72            0.3541   -12.6254     4.4272 H       
  73 H73           -0.6250   -13.3133     3.1094 H       
  74 H74            1.1202   -13.6534     3.1924 H       
  75 H75           -0.2597    -9.8816     2.0283 H       
  76 H76           -1.4071   -11.1756     2.4497 H       
  77 H77           -0.4739   -10.3623     3.7287 H       
@<TRIPOS>BOND
   1    1    2 1
   2    1    3 2
   3    2    5 2
   4    2   41 1
   5    3    4 1
   6    3    6 1
   7    4    5 1
   8    5   18 1
   9    6    7 ar
  10    6    8 ar
  11    7   11 ar
  12    7   42 1
  13    8    9 ar
  14    8   43 1
  15    9   10 ar
  16    9   44 1
  17   10   11 ar
  18   10   12 1
  19   11   16 1
  20   12   13 1
  21   13   14 1
  22   13   15 1
  23   13   45 1
  24   14   46 1
  25   14   47 1
  26   14   48 1
  27   15   49 1
  28   15   50 1
  29   15   51 1
  30   16   17 3
  31   18   19 ar
  32   18   23 ar
  33   19   20 ar
  34   19   24 1
  35   20   21 ar
  36   20   26 1
  37   21   22 ar
  38   21   52 1
  39   22   23 ar
  40   22   53 1
  41   23   54 1
  42   24   25 1
  43   24   55 1
  44   24   56 1
  45   25   26 1
  46   25   57 1
  47   25   58 1
  48   26   27 1
  49   26   59 1
  50   27   28 am
  51   27   60 1
  52   28   29 2
  53   28   30 2
  54   28   31 1
  55   31   32 1
  56   31   61 1
  57   31   62 1
  58   32   33 1
  59   32   63 1
  60   32   64 1
  61   33   34 1
  62   33   37 1
  63   34   35 1
  64   34   65 1
  65   34   66 1
  66   35   36 1
  67   35   67 1
  68   35   68 1
  69   36   37 1
  70   36   38 1
  71   36   69 1
  72   37   70 1
  73   37   71 1
  74   38   39 1
  75   38   40 1
  76   39   72 1
  77   39   73 1
  78   39   74 1
  79   40   75 1
  80   40   76 1
  81   40   77 1

#	End of record

