#	Name: ASD01870023
#	Creating user name:	WinNT
#	Creation time:	15. 06. 2019 19:38

#	Modifying user name:	WinNT
#	Modification time:	15. 06. 2019 19:38

#	Program:	/corina/corina34_cracker 3.40 0067  02.08.2006

@<TRIPOS>MOLECULE
ASD01870023
  48   52    0    0    0
SMALL
NO_CHARGES


@<TRIPOS>ATOM
   1 C1            -0.0187     1.5258     0.0104 C.3     
   2 C2             0.0021    -0.0041     0.0020 C.3     
   3 C3             0.7421    -0.5109     1.2415 C.3     
   4 C4             0.0259    -0.0175     2.5003 C.3     
   5 C5             0.0052     1.5124     2.5088 C.3     
   6 C6            -0.7348     2.0192     1.2692 C.3     
   7 N7            -0.6805     1.9848     3.7141 N.am    
   8 C8            -0.8196     3.3069     3.9358 C.2     
   9 C9            -1.5250     3.7929     5.1757 C.3     
  10 N10           -1.1484     5.1885     5.4458 N.pl3   
  11 C11           -1.6916     6.2022     4.6431 C.ar    
  12 C12           -2.8120     5.9383     3.8559 C.ar    
  13 N13           -3.3881     4.6596     3.8683 N.pl3   
  14 C14           -3.0446     3.7387     4.9620 C.3     
  15 C15           -1.1199     7.4642     4.6296 C.ar    
  16 C16           -1.6633     8.4583     3.8359 C.ar    
  17 C17           -2.7748     8.1971     3.0565 C.ar    
  18 C18           -3.3508     6.9394     3.0639 C.ar    
  19 C19            2.1775     0.0187     1.2307 C.3     
  20 C20            2.1567     1.5485     1.2391 C.3     
  21 C21            1.4406     2.0419     2.4979 C.3     
  22 C22            1.4167     2.0553    -0.0004 C.3     
  23 O23           -0.3770     4.1055     3.1375 O.2     
  24 H24           -0.5459     1.8868    -0.8726 H       
  25 H25           -1.0205    -0.3814     0.0098 H       
  26 H26            0.5123    -0.3556    -0.8948 H       
  27 H27            0.7568    -1.6008     1.2356 H       
  28 H28           -0.9967    -0.3948     2.5081 H       
  29 H29            0.5531    -0.3786     3.3834 H       
  30 H30           -0.7496     3.1091     1.2752 H       
  31 H31           -1.7574     1.6419     1.2770 H       
  32 H32           -1.0345     1.3461     4.3526 H       
  33 H33           -1.2498     3.1669     6.0245 H       
  34 H34           -0.5357     5.4040     6.1663 H       
  35 H35           -4.0020     4.3877     3.1682 H       
  36 H36           -3.3425     2.7245     4.6960 H       
  37 H37           -3.5554     4.0451     5.8749 H       
  38 H38           -0.2518     7.6715     5.2377 H       
  39 H39           -1.2179     9.4421     3.8255 H       
  40 H40           -3.1950     8.9777     2.4396 H       
  41 H41           -4.2194     6.7386     2.4544 H       
  42 H42            2.7046    -0.3424     2.1137 H       
  43 H43            2.6876    -0.3328     0.3339 H       
  44 H44            3.1793     1.9258     1.2314 H       
  45 H45            1.4258     3.1318     2.5039 H       
  46 H46            1.9677     1.6809     3.3810 H       
  47 H47            1.9269     1.7038    -0.8972 H       
  48 H48            1.4019     3.1452     0.0056 H       
@<TRIPOS>BOND
   1    1    2 1
   2    1   22 1
   3    1    6 1
   4    1   24 1
   5    2    3 1
   6    2   25 1
   7    2   26 1
   8    3    4 1
   9    3   19 1
  10    3   27 1
  11    4    5 1
  12    4   28 1
  13    4   29 1
  14    5    6 1
  15    5    7 1
  16    5   21 1
  17    6   30 1
  18    6   31 1
  19    7    8 am
  20    7   32 1
  21    8    9 1
  22    8   23 2
  23    9   10 1
  24    9   14 1
  25    9   33 1
  26   10   11 1
  27   10   34 1
  28   11   12 ar
  29   11   15 ar
  30   12   13 1
  31   12   18 ar
  32   13   14 1
  33   13   35 1
  34   14   36 1
  35   14   37 1
  36   15   16 ar
  37   15   38 1
  38   16   17 ar
  39   16   39 1
  40   17   18 ar
  41   17   40 1
  42   18   41 1
  43   19   20 1
  44   19   42 1
  45   19   43 1
  46   20   21 1
  47   20   22 1
  48   20   44 1
  49   21   45 1
  50   21   46 1
  51   22   47 1
  52   22   48 1

#	End of record

