#	Name: ASD03730037
#	Creating user name:	WinNT
#	Creation time:	15. 06. 2019 20:43

#	Modifying user name:	WinNT
#	Modification time:	15. 06. 2019 20:43

#	Program:	/corina/corina34_cracker 3.40 0067  02.08.2006

@<TRIPOS>MOLECULE
ASD03730037
  39   43    0    0    0
SMALL
NO_CHARGES


@<TRIPOS>ATOM
   1 C1            -0.0184     1.5028     0.0103 C.2     
   2 C2             0.0021    -0.0041     0.0020 C.3     
   3 O3             1.0291     2.1267     0.0037 O.co2   
   4 O4            -1.0824     2.0980     0.0186 O.co2   
   5 O5             5.2362    -2.4826     1.3750 O.3     
   6 C6             5.5791    -1.1824     1.6002 C.ar    
   7 C7             4.5756    -0.3160     1.1727 C.ar    
   8 C8             3.4662    -1.1768     0.6324 C.3     
   9 C9             3.8137    -2.5729     1.1674 C.3     
  10 O10            7.9277     1.4300     2.8282 O.3     
  11 C11            6.8911     0.7200     2.3025 C.ar    
  12 C12            5.8809     1.5633     1.8566 C.ar    
  13 C13            6.3390     2.9847     2.1180 C.3     
  14 C14            7.8530     2.7904     2.3699 C.3     
  15 C15            4.7312     1.0479     1.2988 C.ar    
  16 C16            6.7326    -0.6545     2.1667 C.ar    
  17 N17            1.3897    -0.4735    -0.0138 N.am    
  18 C18            2.1128    -0.7211     1.0965 C.2     
  19 C19            3.4016    -1.1527    -0.8660 C.ar    
  20 C20            4.3029    -1.4568    -1.8631 C.ar    
  21 C21            3.9354    -1.3304    -3.1921 C.ar    
  22 C22            2.6623    -0.8984    -3.5154 C.ar    
  23 C23            1.7564    -0.5934    -2.5208 C.ar    
  24 C24            2.1170    -0.7175    -1.1811 C.ar    
  25 O25            1.7429    -0.5996     2.2452 O.2     
  26 Cl26           5.9005    -1.9982    -1.4526 Cl      
  27 H27           -0.4983    -0.3791     0.8948 H       
  28 H28           -0.5153    -0.3696    -0.8850 H       
  29 H29            3.5782    -3.3399     0.4296 H       
  30 H30            3.2970    -2.7669     2.1073 H       
  31 H31            6.1669     3.6161     1.2463 H       
  32 H32            5.8472     3.3969     2.9991 H       
  33 H33            8.2078     3.4768     3.1386 H       
  34 H34            8.4176     2.9181     1.4463 H       
  35 H35            3.9511     1.7133     0.9596 H       
  36 H36            7.5141    -1.3186     2.5053 H       
  37 H37            4.6414    -1.5682    -3.9741 H       
  38 H38            2.3757    -0.7992    -4.5519 H       
  39 H39            0.7641    -0.2565    -2.7818 H       
@<TRIPOS>BOND
   1    1    2 1
   2    1    3 ar
   3    1    4 ar
   4    2   17 1
   5    2   27 1
   6    2   28 1
   7    5    6 1
   8    5    9 1
   9    6    7 ar
  10    6   16 ar
  11    7    8 1
  12    7   15 ar
  13    8    9 1
  14    8   18 1
  15    8   19 1
  16    9   29 1
  17    9   30 1
  18   10   11 1
  19   10   14 1
  20   11   12 ar
  21   11   16 ar
  22   12   13 1
  23   12   15 ar
  24   13   14 1
  25   13   31 1
  26   13   32 1
  27   14   33 1
  28   14   34 1
  29   15   35 1
  30   16   36 1
  31   17   18 am
  32   17   24 1
  33   18   25 2
  34   19   20 ar
  35   19   24 ar
  36   20   21 ar
  37   20   26 1
  38   21   22 ar
  39   21   37 1
  40   22   23 ar
  41   22   38 1
  42   23   24 ar
  43   23   39 1

#	End of record

