#	Name: ASD07301100
#	Creating user name:	WinNT
#	Creation time:	15. 06. 2019 21:10

#	Modifying user name:	WinNT
#	Modification time:	15. 06. 2019 21:10

#	Program:	/corina/corina34_cracker 3.40 0067  02.08.2006

@<TRIPOS>MOLECULE
ASD07301100
  15   16    0    0    0
SMALL
NO_CHARGES


@<TRIPOS>ATOM
   1 C1            -0.0187     1.5272     0.0104 C.3     
   2 C2             0.0021    -0.0041     0.0020 C.3     
   3 C3             1.3079     0.7795    -0.0062 C.3     
   4 O4             2.1888     0.7979    -1.1579 O.3     
   5 C5             3.4611     0.8130    -0.7365 C.2     
   6 N6             3.5900     0.8074     0.5985 N.am    
   7 C7             2.2484     0.7856     1.2064 C.3     
   8 O8             4.4106     0.8302    -1.4944 O.2     
   9 H9            -0.3239     2.0318    -0.9063 H       
  10 H10           -0.3063     2.0219     0.9382 H       
  11 H11           -0.2719    -0.5165     0.9242 H       
  12 H12           -0.2895    -0.5066    -0.9202 H       
  13 H13            4.4295     0.8162     1.0843 H       
  14 H14            2.0872     1.6768     1.8130 H       
  15 H15            2.1117    -0.1163     1.8030 H       
@<TRIPOS>BOND
   1    1    2 1
   2    1    3 1
   3    1    9 1
   4    1   10 1
   5    2    3 1
   6    2   11 1
   7    2   12 1
   8    3    4 1
   9    3    7 1
  10    4    5 1
  11    5    6 am
  12    5    8 2
  13    6    7 1
  14    6   13 1
  15    7   14 1
  16    7   15 1

#	End of record

