#	Name: ASD01412038
#	Creating user name:	WinNT
#	Creation time:	15. 06. 2019 19:19

#	Modifying user name:	WinNT
#	Modification time:	15. 06. 2019 19:19

#	Program:	/corina/corina34_cracker 3.40 0067  02.08.2006

@<TRIPOS>MOLECULE
ASD01412038
  81   85    0    0    0
SMALL
NO_CHARGES


@<TRIPOS>ATOM
   1 C1            -1.5022     2.4109     2.7017 C.ar    
   2 C2            -1.2886     1.0759     2.3028 C.ar    
   3 C3            -2.3777     0.2727     1.9347 C.ar    
   4 C4            -3.6396     0.7819     1.9626 C.ar    
   5 C5            -3.8618     2.1091     2.3581 C.ar    
   6 C6            -2.7921     2.9194     2.7313 C.ar    
   7 N7            -0.2692     2.9504     3.0022 N.pl3   
   8 C8             0.6952     1.9908     2.8011 C.2     
   9 C9             0.1062     0.8442     2.3770 C.2     
  10 C10            0.8109    -0.4456     2.0443 C.3     
  11 C11            0.2908    -1.5604     2.9541 C.3     
  12 C12            1.0063    -2.8699     2.6163 C.3     
  13 C13            0.7365    -3.2363     1.1555 C.3     
  14 C14            1.2566    -2.1216     0.2457 C.3     
  15 C15            0.5411    -0.8121     0.5835 C.3     
  16 C16           -5.2356     2.6479     2.3836 C.2     
  17 O17           -5.4312     3.7981     2.7260 O.2     
  18 N18           -6.2732     1.8651     2.0273 N.am    
  19 C19           -7.6369     2.4000     2.0526 C.3     
  20 C20           -8.6040     1.3310     1.6134 C.2     
  21 C21           -7.9827     2.8478     3.4741 C.3     
  22 C22           -7.7332     3.5961     1.1034 C.3     
  23 C23           -9.1167    -0.5796     0.2988 C.ar    
  24 O24           -9.7075     1.2694     2.1127 O.2     
  25 C25          -10.4858    -0.3358     0.2436 C.ar    
  26 C26          -11.3515    -1.3406    -0.1230 C.ar    
  27 C27          -10.8530    -2.6098    -0.4412 C.ar    
  28 C28           -9.4748    -2.8503    -0.3847 C.ar    
  29 C29           -8.6167    -1.8395    -0.0166 C.ar    
  30 C30          -11.7735    -3.6861    -0.8327 C.2     
  31 C31          -12.8224    -3.4174    -1.6408 C.2     
  32 N32           -8.2426     0.4434     0.6658 N.am    
  33 C33           -0.0265     4.3208     3.4597 C.3     
  34 C34            2.1461     2.1788     3.0137 C.ar    
  35 N35            3.0143     1.4841     2.2867 N.ar    
  36 C36            4.3142     1.6231     2.4454 C.ar    
  37 C37            4.8257     2.5036     3.3818 C.ar    
  38 C38            3.9543     3.2494     4.1630 C.ar    
  39 C39            2.5930     3.0886     3.9722 C.ar    
  40 C40          -12.8417    -2.2225    -2.4036 C.2     
  41 O41          -11.8506    -1.5191    -2.4574 O.2     
  42 O42          -13.9594    -1.8654    -3.0699 O.3     
  43 C43            6.3157     2.6510     3.5525 C.3     
  44 F44            6.9740     1.7997     2.6585 F       
  45 F45            6.6860     3.9751     3.2941 F       
  46 F46            6.6705     2.3149     4.8634 F       
  47 H47           -2.2150    -0.7501     1.6286 H       
  48 H48           -4.4754     0.1599     1.6780 H       
  49 H49           -2.9657     3.9409     3.0358 H       
  50 H50            1.8833    -0.3234     2.1961 H       
  51 H51            0.4830    -1.2993     3.9948 H       
  52 H52           -0.7816    -1.6826     2.8022 H       
  53 H53            2.0787    -2.7476     2.7681 H       
  54 H54            0.6358    -3.6641     3.2644 H       
  55 H55            1.2463    -4.1692     0.9148 H       
  56 H56           -0.3359    -3.3586     1.0036 H       
  57 H57            2.3291    -1.9993     0.3975 H       
  58 H58            1.0645    -2.3826    -0.7950 H       
  59 H59           -0.5313    -0.9343     0.4316 H       
  60 H60            0.9117    -0.0179    -0.0647 H       
  61 H61           -6.1172     0.9476     1.7541 H       
  62 H62           -7.2832     3.6211     3.7918 H       
  63 H63           -8.9973     3.2458     3.4929 H       
  64 H64           -7.9141     1.9957     4.1503 H       
  65 H65           -7.4868     3.2770     0.0907 H       
  66 H66           -8.7478     3.9941     1.1222 H       
  67 H67           -7.0337     4.3693     1.4211 H       
  68 H68          -10.8694     0.6435     0.4892 H       
  69 H69          -12.4139    -1.1508    -0.1648 H       
  70 H70           -9.0860    -3.8278    -0.6290 H       
  71 H71           -7.5534    -2.0240     0.0269 H       
  72 H72          -11.6115    -4.6921    -0.4746 H       
  73 H73          -13.6461    -4.1129    -1.7056 H       
  74 H74           -7.3746     0.5161     0.2389 H       
  75 H75           -0.0577     4.3512     4.5488 H       
  76 H76            0.9535     4.6507     3.1149 H       
  77 H77           -0.7947     4.9802     3.0556 H       
  78 H78            4.9902     1.0415     1.8363 H       
  79 H79            4.3302     3.9431     4.9005 H       
  80 H80            1.8867     3.6532     4.5628 H       
  81 H81          -13.8766    -1.0366    -3.5611 H       
@<TRIPOS>BOND
   1    1    2 ar
   2    1    7 1
   3    1    6 ar
   4    2    3 ar
   5    2    9 1
   6    3    4 ar
   7    3   47 1
   8    4    5 ar
   9    4   48 1
  10    5    6 ar
  11    5   16 1
  12    6   49 1
  13    7    8 1
  14    7   33 1
  15    8    9 2
  16    8   34 1
  17    9   10 1
  18   10   11 1
  19   10   15 1
  20   10   50 1
  21   11   12 1
  22   11   51 1
  23   11   52 1
  24   12   13 1
  25   12   53 1
  26   12   54 1
  27   13   14 1
  28   13   55 1
  29   13   56 1
  30   14   15 1
  31   14   57 1
  32   14   58 1
  33   15   59 1
  34   15   60 1
  35   16   17 2
  36   16   18 am
  37   18   19 1
  38   18   61 1
  39   19   20 1
  40   19   21 1
  41   19   22 1
  42   20   24 2
  43   20   32 am
  44   21   62 1
  45   21   63 1
  46   21   64 1
  47   22   65 1
  48   22   66 1
  49   22   67 1
  50   23   25 ar
  51   23   29 ar
  52   23   32 1
  53   25   26 ar
  54   25   68 1
  55   26   27 ar
  56   26   69 1
  57   27   28 ar
  58   27   30 1
  59   28   29 ar
  60   28   70 1
  61   29   71 1
  62   30   31 2
  63   30   72 1
  64   31   40 1
  65   31   73 1
  66   32   74 1
  67   33   75 1
  68   33   76 1
  69   33   77 1
  70   34   35 ar
  71   34   39 ar
  72   35   36 ar
  73   36   37 ar
  74   36   78 1
  75   37   38 ar
  76   37   43 1
  77   38   39 ar
  78   38   79 1
  79   39   80 1
  80   40   41 2
  81   40   42 1
  82   42   81 1
  83   43   44 1
  84   43   45 1
  85   43   46 1

#	End of record

