#	Name: ASD09610020
#	Creating user name:	WinNT
#	Creation time:	15. 06. 2019 21:22

#	Modifying user name:	WinNT
#	Modification time:	15. 06. 2019 21:22

#	Program:	/corina/corina34_cracker 3.40 0067  02.08.2006

@<TRIPOS>MOLECULE
ASD09610020
  49   51    0    0    0
SMALL
NO_CHARGES


@<TRIPOS>ATOM
   1 N1            -0.0169     1.3974     0.0097 N.2     
   2 N2             0.0021    -0.0041     0.0020 N.am    
   3 C3             1.2948    -0.3899    -0.0124 C.2     
   4 N4             2.0514     0.7258    -0.0136 N.am    
   5 C5             1.2125     1.8174     0.0002 C.2     
   6 O6             1.7038    -1.5373    -0.0219 O.2     
   7 C7             3.4528     0.7674    -0.0268 C.ar    
   8 C8             4.1595     0.7811     1.1683 C.ar    
   9 C9             5.5398     0.8221     1.1521 C.ar    
  10 C10            6.2182     0.8500    -0.0527 C.ar    
  11 C11            5.5171     0.8370    -1.2443 C.ar    
  12 C12            4.1365     0.7893    -1.2345 C.ar    
  13 C13            3.4211     0.7516     2.4816 C.3     
  14 O14            4.3615     0.7729     3.5574 O.3     
  15 N15            3.7672     0.7478     4.8424 N.2     
  16 C16            4.5120     0.7634     5.8997 C.2     
  17 C17            6.0122     0.8082     5.7640 C.3     
  18 C18            3.8923     0.7373     7.2395 C.ar    
  19 C19            2.5026     0.6958     7.3688 C.ar    
  20 C20            1.9304     0.6711     8.6236 C.ar    
  21 C21            2.7302     0.6874     9.7527 C.ar    
  22 C22            4.1076     0.7290     9.6318 C.ar    
  23 C23            4.6933     0.7482     8.3827 C.ar    
  24 C24            0.4307     0.6268     8.7652 C.3     
  25 F25            0.0048    -0.7053     8.8004 F       
  26 F26            0.0550     1.2680     9.9504 F       
  27 F27           -0.1599     1.2765     7.6760 F       
  28 C28           -1.1667    -0.8874     0.0092 C.3     
  29 O29            1.6045     3.1154     0.0028 O.3     
  30 C30            0.5732     4.1044     0.0177 C.3     
  31 H31            6.0901     0.8328     2.0814 H       
  32 H32            7.2976     0.8825    -0.0629 H       
  33 H33            6.0495     0.8596    -2.1837 H       
  34 H34            3.5896     0.7738    -2.1657 H       
  35 H35            2.7693     1.6225     2.5516 H       
  36 H36            2.8215    -0.1567     2.5411 H       
  37 H37            6.3437     1.8463     5.7374 H       
  38 H38            6.4692     0.3026     6.6146 H       
  39 H39            6.3087     0.3083     4.8419 H       
  40 H40            1.8773     0.6834     6.4884 H       
  41 H41            2.2769     0.6680    10.7328 H       
  42 H42            4.7260     0.7419    10.5172 H       
  43 H43            5.7690     0.7762     8.2897 H       
  44 H44           -2.0761    -0.2866     0.0212 H       
  45 H45           -1.1556    -1.5119    -0.8841 H       
  46 H46           -1.1379    -1.5208     0.8957 H       
  47 H47           -0.0534     3.9894    -0.8668 H       
  48 H48           -0.0360     3.9807     0.9131 H       
  49 H49            1.0222     5.0976     0.0182 H       
@<TRIPOS>BOND
   1    1    2 1
   2    1    5 2
   3    2    3 am
   4    2   28 1
   5    3    4 am
   6    3    6 2
   7    4    5 1
   8    4    7 1
   9    5   29 1
  10    7    8 ar
  11    7   12 ar
  12    8    9 ar
  13    8   13 1
  14    9   10 ar
  15    9   31 1
  16   10   11 ar
  17   10   32 1
  18   11   12 ar
  19   11   33 1
  20   12   34 1
  21   13   14 1
  22   13   35 1
  23   13   36 1
  24   14   15 1
  25   15   16 2
  26   16   17 1
  27   16   18 1
  28   17   37 1
  29   17   38 1
  30   17   39 1
  31   18   19 ar
  32   18   23 ar
  33   19   20 ar
  34   19   40 1
  35   20   21 ar
  36   20   24 1
  37   21   22 ar
  38   21   41 1
  39   22   23 ar
  40   22   42 1
  41   23   43 1
  42   24   25 1
  43   24   26 1
  44   24   27 1
  45   28   44 1
  46   28   45 1
  47   28   46 1
  48   29   30 1
  49   30   47 1
  50   30   48 1
  51   30   49 1

#	End of record

