#	Name: ASD00431079
#	Creating user name:	WinNT
#	Creation time:	15. 06. 2019 18:35

#	Modifying user name:	WinNT
#	Modification time:	15. 06. 2019 18:35

#	Program:	/corina/corina34_cracker 3.40 0067  02.08.2006

@<TRIPOS>MOLECULE
ASD00431079
  53   55    0    0    0
SMALL
NO_CHARGES


@<TRIPOS>ATOM
   1 C1             0.2619     1.3382     0.2271 C.2     
   2 N2             0.3071    -0.0087     0.2414 N.am    
   3 O3             1.2933     1.9806     0.2157 O.2     
   4 O4            -0.9260     1.9719     0.2198 O.3     
   5 C5            -0.8987     3.4235     0.2044 C.3     
   6 C6            -0.8884     3.9181    -1.2434 C.3     
   7 C7            -2.1198     3.9564     0.9086 C.ar    
   8 C8            -2.0348     5.1159     1.6516 C.ar    
   9 C9            -3.1669     5.6083     2.3028 C.ar    
  10 C10           -4.3787     4.9229     2.1974 C.ar    
  11 C11           -4.4498     3.7649     1.4514 C.ar    
  12 C12           -3.3248     3.2851     0.8040 C.ar    
  13 S13           -1.6414     7.8339     3.3381 S.3     
  14 C14           -2.5302     8.9206     4.3136 C.2     
  15 N15           -3.7636     8.5323     4.4113 N.2     
  16 C16           -4.0968     7.4286     3.7760 C.2     
  17 C17           -3.0831     6.8495     3.1008 C.2     
  18 O18           -2.0188    10.0287     4.9014 O.3     
  19 C19           -2.8739    10.8518     5.5646 C.ar    
  20 C20           -3.5158    10.4069     6.7111 C.ar    
  21 C21           -4.3845    11.2431     7.3848 C.ar    
  22 C22           -4.6150    12.5277     6.9150 C.ar    
  23 C23           -3.9732    12.9727     5.7686 C.ar    
  24 C24           -3.1002    12.1386     5.0981 C.ar    
  25 O25           -5.4706    13.3507     7.5780 O.3     
  26 C26           -6.2002    12.7853     8.6689 C.3     
  27 C27           -5.4444    13.0399     9.9745 C.3     
  28 C28           -7.5845    13.4323     8.7464 C.3     
  29 C29            1.5997    -0.6983     0.2432 C.3     
  30 H30           -0.5162    -0.5215     0.2504 H       
  31 H31           -0.0022     3.7755     0.7150 H       
  32 H32           -0.0051     3.5327    -1.7528 H       
  33 H33           -1.7848     3.5662    -1.7540 H       
  34 H34           -0.8678     5.0079    -1.2550 H       
  35 H35           -1.0943     5.6411     1.7294 H       
  36 H36           -5.2582     5.2984     2.6991 H       
  37 H37           -5.3866     3.2338     1.3690 H       
  38 H38           -3.3869     2.3801     0.2177 H       
  39 H39           -5.0969     7.0212     3.7943 H       
  40 H40           -3.3366     9.4066     7.0767 H       
  41 H41           -4.8845    10.8967     8.2772 H       
  42 H42           -4.1531    13.9728     5.4027 H       
  43 H43           -2.5970    12.4865     4.2080 H       
  44 H44           -6.3091    11.7116     8.5155 H       
  45 H45           -5.3355    14.1135    10.1279 H       
  46 H46           -6.0009    12.6086    10.8066 H       
  47 H47           -4.4582    12.5789     9.9193 H       
  48 H48           -8.1230    13.2509     7.8163 H       
  49 H49           -8.1410    13.0010     9.5785 H       
  50 H50           -7.4756    14.5060     8.8998 H       
  51 H51            2.1583    -0.4256    -0.6522 H       
  52 H52            2.1660    -0.4064     1.1277 H       
  53 H53            1.4366    -1.7759     0.2555 H       
@<TRIPOS>BOND
   1    1    2 am
   2    1    3 2
   3    1    4 1
   4    2   29 1
   5    2   30 1
   6    4    5 1
   7    5    6 1
   8    5    7 1
   9    5   31 1
  10    6   32 1
  11    6   33 1
  12    6   34 1
  13    7    8 ar
  14    7   12 ar
  15    8    9 ar
  16    8   35 1
  17    9   10 ar
  18    9   17 1
  19   10   11 ar
  20   10   36 1
  21   11   12 ar
  22   11   37 1
  23   12   38 1
  24   13   14 1
  25   13   17 1
  26   14   15 2
  27   14   18 1
  28   15   16 1
  29   16   17 2
  30   16   39 1
  31   18   19 1
  32   19   20 ar
  33   19   24 ar
  34   20   21 ar
  35   20   40 1
  36   21   22 ar
  37   21   41 1
  38   22   23 ar
  39   22   25 1
  40   23   24 ar
  41   23   42 1
  42   24   43 1
  43   25   26 1
  44   26   27 1
  45   26   28 1
  46   26   44 1
  47   27   45 1
  48   27   46 1
  49   27   47 1
  50   28   48 1
  51   28   49 1
  52   28   50 1
  53   29   51 1
  54   29   52 1
  55   29   53 1

#	End of record

