#	Name: ASD04930025
#	Creating user name:	WinNT
#	Creation time:	15. 06. 2019 20:56

#	Modifying user name:	WinNT
#	Modification time:	15. 06. 2019 20:56

#	Program:	/corina/corina34_cracker 3.40 0067  02.08.2006

@<TRIPOS>MOLECULE
ASD04930025
  28   29    0    0    0
SMALL
NO_CHARGES


@<TRIPOS>ATOM
   1 C1            -0.0532     1.0575     0.1223 C.ar    
   2 C2             0.0873    -0.3222     0.0959 C.ar    
   3 C3             1.3368    -0.9012     0.0376 C.ar    
   4 C4             2.4752    -0.1015     0.0045 C.ar    
   5 C5             2.3355     1.2979     0.0311 C.ar    
   6 C6             1.0585     1.8708     0.0904 C.ar    
   7 N7             3.7271    -0.6796    -0.0534 N.am    
   8 C8             4.8474     0.0616    -0.0862 C.2     
   9 C9             4.7820     1.5225    -0.0616 C.2     
  10 C10            3.5312     2.1447    -0.0036 C.2     
  11 O11            3.4277     3.4897     0.0202 O.3     
  12 O12            5.9320    -0.4906    -0.1367 O.2     
  13 C13            6.0100     2.3228    -0.0973 C.2     
  14 O14            5.9443     3.5333    -0.1927 O.2     
  15 H15            3.8002    -1.6467    -0.0706 H       
  16 Cl16           0.8776     3.5970     0.1230 Cl      
  17 O17            7.2123     1.7164    -0.0243 O.3     
  18 C18            9.6469     1.7109     0.0285 C.3     
  19 C19            8.3852     2.5713    -0.0655 C.3     
  20 H20           -1.0391     1.4966     0.1635 H       
  21 H21           -0.7916    -0.9493     0.1217 H       
  22 H22            1.4325    -1.9767     0.0179 H       
  23 H23            4.2768     3.9485     0.0807 H       
  24 H24           10.5274     2.3526    -0.0024 H       
  25 H25            9.6369     1.1524     0.9645 H       
  26 H26            9.6751     1.0147    -0.8097 H       
  27 H27            8.3952     3.1297    -1.0015 H       
  28 H28            8.3570     3.2675     0.7728 H       
@<TRIPOS>BOND
   1    1    2 ar
   2    1    6 ar
   3    1   20 1
   4    2    3 ar
   5    2   21 1
   6    3    4 ar
   7    3   22 1
   8    4    5 ar
   9    4    7 1
  10    5    6 ar
  11    5   10 1
  12    6   16 1
  13    7    8 am
  14    7   15 1
  15    8    9 1
  16    8   12 2
  17    9   10 2
  18    9   13 1
  19   10   11 1
  20   11   23 1
  21   13   14 2
  22   13   17 1
  23   17   19 1
  24   18   19 1
  25   18   24 1
  26   18   25 1
  27   18   26 1
  28   19   27 1
  29   19   28 1

#	End of record

