#	Name: ASD01028751
#	Creating user name:	WinNT
#	Creation time:	15. 06. 2019 18:58

#	Modifying user name:	WinNT
#	Modification time:	15. 06. 2019 18:58

#	Program:	/corina/corina34_cracker 3.40 0067  02.08.2006

@<TRIPOS>MOLECULE
ASD01028751
  15   16    0    0    0
SMALL
NO_CHARGES


@<TRIPOS>ATOM
   1 C1            -0.0156     1.2973     0.0092 C.cat   
   2 N2             0.0021    -0.0041     0.0020 N.pl3   
   3 C3             1.2852    -0.4459    -0.0126 C.ar    
   4 C4             2.1079     0.6951    -0.0143 C.ar    
   5 N5             1.2586     1.7821    -0.0004 N.pl3   
   6 N6             1.8325    -1.6594    -0.0243 N.ar    
   7 C7             3.1371    -1.8254    -0.0377 C.ar    
   8 C8             4.0033    -0.7434    -0.0402 C.ar    
   9 C9             3.4880     0.5415    -0.0288 C.ar    
  10 O10           -1.1451    -0.8341     0.0092 O.3     
  11 H11           -0.9088     1.9043     0.0168 H       
  12 H12            1.5192     2.7164     0.0021 H       
  13 H13            3.5422    -2.8265    -0.0466 H       
  14 H14            5.0716    -0.9013    -0.0513 H       
  15 H15            4.1417     1.4012    -0.0306 H       
@<TRIPOS>BOND
   1    1    2 ar
   2    1    5 ar
   3    1   11 1
   4    2    3 1
   5    2   10 1
   6    3    4 ar
   7    3    6 ar
   8    4    5 1
   9    4    9 ar
  10    5   12 1
  11    6    7 ar
  12    7    8 ar
  13    7   13 1
  14    8    9 ar
  15    8   14 1
  16    9   15 1

#	End of record

