#	Name: ASD01884082
#	Creating user name:	WinNT
#	Creation time:	15. 06. 2019 19:47

#	Modifying user name:	WinNT
#	Modification time:	15. 06. 2019 19:47

#	Program:	/corina/corina34_cracker 3.40 0067  02.08.2006

@<TRIPOS>MOLECULE
ASD01884082
  60   62    0    0    0
SMALL
NO_CHARGES


@<TRIPOS>ATOM
   1 C1            -0.4092     0.7430    -1.1147 C.2     
   2 C2             0.0021    -0.0041     0.0020 C.2     
   3 C3            -0.8300    -0.0387     1.1364 C.2     
   4 C4            -1.9989     0.6384     1.1371 C.2     
   5 N5            -2.3979     1.3611     0.0583 N.am    
   6 C6            -1.6412     1.4360    -1.0524 C.2     
   7 C7             0.4054     0.8066    -2.2907 C.1     
   8 N8             1.0516     0.8571    -3.2236 N.1     
   9 N9             1.1960    -0.6894    -0.0135 N.pl3   
  10 O10           -2.0219     2.0917    -2.0074 O.2     
  11 C11           -3.6743     2.0785     0.1070 C.3     
  12 C12           -3.4458     3.4894     0.6529 C.3     
  13 C13           -4.7788     4.2387     0.7038 C.3     
  14 C14           -5.7073     3.5597     1.7127 C.3     
  15 C15           -4.5336     5.6873     1.1308 C.3     
  16 C16            1.2192    -2.1549     0.0886 C.3     
  17 C17            2.1489    -2.5544     1.2389 C.3     
  18 C18            3.5236    -1.9174     1.0231 C.3     
  19 C19            3.3866    -0.3932     1.0198 C.3     
  20 C20            2.4707     0.0303    -0.1386 C.3     
  21 C21            4.4650    -2.3422     2.1519 C.3     
  22 C22            5.8500    -1.8165     1.8755 C.ar    
  23 C23            6.2218    -0.5708     2.3459 C.ar    
  24 C24            7.4918    -0.0862     2.0932 C.ar    
  25 C25            8.3933    -0.8522     1.3669 C.ar    
  26 C26            8.0171    -2.1017     0.8969 C.ar    
  27 C27            6.7485    -2.5833     1.1567 C.ar    
  28 Cl28           7.9582     1.4785     2.6829 Cl      
  29 O29            9.6425    -0.3783     1.1165 O.3     
  30 C30           10.5169    -1.2207     0.3630 C.3     
  31 H31           -0.5342    -0.6067     2.0060 H       
  32 H32           -2.6294     0.6041     2.0133 H       
  33 H33           -4.0946     2.1410    -0.8968 H       
  34 H34           -4.3665     1.5447     0.7581 H       
  35 H35           -3.0255     3.4269     1.6567 H       
  36 H36           -2.7536     4.0232     0.0018 H       
  37 H37           -5.2417     4.2241    -0.2829 H       
  38 H38           -5.2444     3.5743     2.6995 H       
  39 H39           -6.6569     4.0935     1.7490 H       
  40 H40           -5.8819     2.5277     1.4085 H       
  41 H41           -3.8722     6.1710     0.4121 H       
  42 H42           -5.4833     6.2211     1.1671 H       
  43 H43           -4.0707     5.7018     2.1176 H       
  44 H44            0.2129    -2.5234     0.2874 H       
  45 H45            1.5888    -2.5804    -0.8444 H       
  46 H46            1.7303    -2.2054     2.1829 H       
  47 H47            2.2505    -3.6393     1.2645 H       
  48 H48            3.9308    -2.2475     0.0674 H       
  49 H49            2.9564    -0.0645     1.9659 H       
  50 H50            4.3693     0.0601     0.8895 H       
  51 H51            2.9446    -0.2173    -1.0884 H       
  52 H52            2.2894     1.1039    -0.0872 H       
  53 H53            4.1046    -1.9370     3.0974 H       
  54 H54            4.4943    -3.4302     2.2105 H       
  55 H55            5.5197     0.0244     2.9109 H       
  56 H56            8.7166    -2.6994     0.3313 H       
  57 H57            6.4556    -3.5564     0.7911 H       
  58 H58           10.6616    -2.1616     0.8939 H       
  59 H59           10.0774    -1.4190    -0.6145 H       
  60 H60           11.4788    -0.7241     0.2350 H       
@<TRIPOS>BOND
   1    1    2 2
   2    1    7 1
   3    1    6 1
   4    2    3 1
   5    2    9 1
   6    3    4 2
   7    3   31 1
   8    4    5 1
   9    4   32 1
  10    5   11 1
  11    5    6 am
  12    6   10 2
  13    7    8 3
  14    9   16 1
  15    9   20 1
  16   11   12 1
  17   11   33 1
  18   11   34 1
  19   12   13 1
  20   12   35 1
  21   12   36 1
  22   13   14 1
  23   13   15 1
  24   13   37 1
  25   14   38 1
  26   14   39 1
  27   14   40 1
  28   15   41 1
  29   15   42 1
  30   15   43 1
  31   16   17 1
  32   16   44 1
  33   16   45 1
  34   17   18 1
  35   17   46 1
  36   17   47 1
  37   18   19 1
  38   18   21 1
  39   18   48 1
  40   19   20 1
  41   19   49 1
  42   19   50 1
  43   20   51 1
  44   20   52 1
  45   21   22 1
  46   21   53 1
  47   21   54 1
  48   22   23 ar
  49   22   27 ar
  50   23   24 ar
  51   23   55 1
  52   24   25 ar
  53   24   28 1
  54   25   26 ar
  55   25   29 1
  56   26   27 ar
  57   26   56 1
  58   27   57 1
  59   29   30 1
  60   30   58 1
  61   30   59 1
  62   30   60 1

#	End of record

