#	Name: ASD01901319
#	Creating user name:	WinNT
#	Creation time:	15. 06. 2019 19:53

#	Modifying user name:	WinNT
#	Modification time:	15. 06. 2019 19:53

#	Program:	/corina/corina34_cracker 3.40 0067  02.08.2006

@<TRIPOS>MOLECULE
ASD01901319
  46   49    0    0    0
SMALL
NO_CHARGES


@<TRIPOS>ATOM
   1 C1            -0.0167     1.3829     0.0096 C.ar    
   2 C2             0.0021    -0.0041     0.0020 C.ar    
   3 C3             1.2076    -0.6796    -0.0127 C.ar    
   4 C4             2.4006     0.0209    -0.0203 C.ar    
   5 C5             2.3971     1.4018    -0.0128 C.ar    
   6 C6             1.1893     2.0936     0.0019 C.ar    
   7 C7             1.1802     3.5772     0.0095 C.2     
   8 N8             0.8708     5.5959     1.1946 N.2     
   9 C9             0.8775     4.2853     1.1931 C.2     
  10 C10            1.4702     4.2780    -1.1278 C.2     
  11 C11            1.1493     6.2916     0.0820 C.2     
  12 N12            1.2038     7.5950    -0.1535 N.2     
  13 N13            1.4533     5.6410    -1.0859 N.pl3   
  14 C14            1.6926     6.6002    -2.0328 C.2     
  15 C15            1.5323     7.7987    -1.4326 C.2     
  16 C16            1.6960     9.1425    -2.0949 C.3     
  17 O17            2.0499     8.9573    -3.4670 O.3     
  18 C18            2.2362    10.0780    -4.2128 C.ar    
  19 C19            2.0872    11.3302    -3.6345 C.ar    
  20 C20            2.5813     9.9718    -5.5523 C.ar    
  21 C21            2.7701    11.1125    -6.3083 C.ar    
  22 C22            2.6158    12.3593    -5.7309 C.ar    
  23 C23            2.2770    12.4678    -4.3947 C.ar    
  24 N24           -1.2330     2.0670     0.0191 N.3     
  25 C25           -2.0337     1.7339    -1.1666 C.3     
  26 C26           -1.9812     1.7935     1.2534 C.3     
  27 H27           -0.9260    -0.5564     0.0079 H       
  28 H28            1.2185    -1.7595    -0.0178 H       
  29 H29            3.3386    -0.5144    -0.0318 H       
  30 H30            3.3307     1.9446    -0.0181 H       
  31 H31            0.6504     3.7450     2.1002 H       
  32 H32            1.7093     3.7604    -2.0450 H       
  33 H33            1.9594     6.4301    -3.0654 H       
  34 H34            0.7584     9.6948    -2.0329 H       
  35 H35            2.4822     9.7033    -1.5895 H       
  36 H36            1.8225    11.4155    -2.5909 H       
  37 H37            2.7026     8.9981    -6.0036 H       
  38 H38            3.0387    11.0303    -7.3511 H       
  39 H39            2.7642    13.2499    -6.3235 H       
  40 H40            2.1611    13.4429    -3.9450 H       
  41 H41           -2.2352     0.6628    -1.1797 H       
  42 H42           -2.9761     2.2806    -1.1340 H       
  43 H43           -1.4837     2.0111    -2.0659 H       
  44 H44           -1.3932     2.1141     2.1133 H       
  45 H45           -2.9248     2.3390     1.2347 H       
  46 H46           -2.1809     0.7246     1.3279 H       
@<TRIPOS>BOND
   1    1    2 ar
   2    1    6 ar
   3    1   24 1
   4    2    3 ar
   5    2   27 1
   6    3    4 ar
   7    3   28 1
   8    4    5 ar
   9    4   29 1
  10    5    6 ar
  11    5   30 1
  12    6    7 1
  13    7   10 2
  14    7    9 1
  15    8    9 2
  16    8   11 1
  17    9   31 1
  18   10   13 1
  19   10   32 1
  20   11   13 1
  21   11   12 2
  22   12   15 1
  23   13   14 1
  24   14   15 2
  25   14   33 1
  26   15   16 1
  27   16   17 1
  28   16   34 1
  29   16   35 1
  30   17   18 1
  31   18   20 ar
  32   18   19 ar
  33   19   23 ar
  34   19   36 1
  35   20   21 ar
  36   20   37 1
  37   21   22 ar
  38   21   38 1
  39   22   23 ar
  40   22   39 1
  41   23   40 1
  42   24   25 1
  43   24   26 1
  44   25   41 1
  45   25   42 1
  46   25   43 1
  47   26   44 1
  48   26   45 1
  49   26   46 1

#	End of record

