#	Name: ASD03092404
#	Creating user name:	WinNT
#	Creation time:	15. 06. 2019 20:32

#	Modifying user name:	WinNT
#	Modification time:	15. 06. 2019 20:32

#	Program:	/corina/corina34_cracker 3.40 0067  02.08.2006

@<TRIPOS>MOLECULE
ASD03092404
  65   68    0    0    0
SMALL
NO_CHARGES


@<TRIPOS>ATOM
   1 C1             0.3378     2.0153     0.1446 C.2     
   2 C2             0.5541     0.5260     0.2244 C.3     
   3 C3             2.0547     0.2277     0.2210 C.3     
   4 C4             2.2771    -1.2719     0.4272 C.3     
   5 O5             1.2901     2.7643     0.0903 O.2     
   6 N6            -0.9140     2.5145     0.1279 N.am    
   7 C7             2.6561     0.6528    -1.1201 C.3     
   8 C8            -1.1243     3.9622     0.0504 C.3     
   9 S9            -4.9831     4.7577    -0.6387 S.3     
  10 C10           -4.5797     4.6090     1.0158 C.2     
  11 N11           -3.3133     4.3515     1.1495 N.2     
  12 C12           -2.6025     4.2556     0.0469 C.2     
  13 C13           -3.3088     4.4431    -1.0876 C.2     
  14 N14           -5.4735     4.7439     2.0625 N.3     
  15 C15           -6.8266     5.0336     1.5658 C.3     
  16 C16           -7.7690     5.2339     2.7555 C.3     
  17 O17           -7.7347     4.0699     3.5858 O.3     
  18 C18           -6.4320     3.7589     4.0875 C.3     
  19 C19           -5.4760     3.5436     2.9113 C.3     
  20 C20           -6.5002     2.4839     4.9304 C.3     
  21 C21           -9.1946     5.4563     2.2462 C.3     
  22 C22           -2.5478     5.3150    -4.6604 C.ar    
  23 C23           -3.0698     5.4019    -3.3878 C.ar    
  24 C24           -2.7732     4.3929    -2.4620 C.ar    
  25 C25           -1.9533     3.3350    -2.8775 C.ar    
  26 C26           -1.4750     3.3287    -4.1696 C.ar    
  27 N27           -1.7793     4.3003    -5.0103 N.ar    
  28 C28           -0.5919     2.1975    -4.6296 C.3     
  29 C29           -2.8638     6.3899    -5.6682 C.3     
  30 C30           -4.1666     6.2557    -6.4593 C.3     
  31 C31           -4.0418     7.3181    -5.3653 C.3     
  32 H32            0.1096     0.1430     1.1430 H       
  33 H33            0.0859     0.0444    -0.6340 H       
  34 H34            2.5370     0.7808     1.0270 H       
  35 H35            1.7949    -1.8249    -0.3788 H       
  36 H36            3.3462    -1.4844     0.4248 H       
  37 H37            1.8486    -1.5747     1.3826 H       
  38 H38           -1.6757     1.9152     0.1673 H       
  39 H39            2.4977     1.7212    -1.2670 H       
  40 H40            3.7252     0.4403    -1.1226 H       
  41 H41            2.1739     0.0998    -1.9262 H       
  42 H42           -0.6604     4.4434     0.9113 H       
  43 H43           -0.6756     4.3460    -0.8659 H       
  44 H44           -6.8060     5.9402     0.9610 H       
  45 H45           -7.1781     4.1988     0.9595 H       
  46 H46           -7.4483     6.1017     3.3319 H       
  47 H47           -6.0724     4.5838     4.7026 H       
  48 H48           -5.8060     2.6850     2.3265 H       
  49 H49           -4.4696     3.3626     3.2887 H       
  50 H50           -6.8581     1.6594     4.3138 H       
  51 H51           -5.5072     2.2473     5.3125 H       
  52 H52           -7.1840     2.6365     5.7655 H       
  53 H53           -9.5148     4.5871     1.6717 H       
  54 H54           -9.8650     5.5988     3.0937 H       
  55 H55           -9.2193     6.3413     1.6104 H       
  56 H56           -3.6976     6.2351    -3.1084 H       
  57 H57           -1.7000     2.5370    -2.1952 H       
  58 H58           -1.2089     1.4008    -5.0452 H       
  59 H59            0.0955     2.5607    -5.3936 H       
  60 H60           -0.0236     1.8128    -3.7828 H       
  61 H61           -2.0042     6.8188    -6.1832 H       
  62 H62           -4.1641     6.5967    -7.4946 H       
  63 H63           -4.7951     5.3899    -6.2507 H       
  64 H64           -4.5882     7.1512    -4.4370 H       
  65 H65           -3.9573     8.3579    -5.6809 H       
@<TRIPOS>BOND
   1    1    2 1
   2    1    5 2
   3    1    6 am
   4    2    3 1
   5    2   32 1
   6    2   33 1
   7    3    4 1
   8    3    7 1
   9    3   34 1
  10    4   35 1
  11    4   36 1
  12    4   37 1
  13    6    8 1
  14    6   38 1
  15    7   39 1
  16    7   40 1
  17    7   41 1
  18    8   12 1
  19    8   42 1
  20    8   43 1
  21    9   10 1
  22    9   13 1
  23   10   11 2
  24   10   14 1
  25   11   12 1
  26   12   13 2
  27   13   24 1
  28   14   15 1
  29   14   19 1
  30   15   16 1
  31   15   44 1
  32   15   45 1
  33   16   17 1
  34   16   21 1
  35   16   46 1
  36   17   18 1
  37   18   19 1
  38   18   20 1
  39   18   47 1
  40   19   48 1
  41   19   49 1
  42   20   50 1
  43   20   51 1
  44   20   52 1
  45   21   53 1
  46   21   54 1
  47   21   55 1
  48   22   23 ar
  49   22   27 ar
  50   22   29 1
  51   23   24 ar
  52   23   56 1
  53   24   25 ar
  54   25   26 ar
  55   25   57 1
  56   26   27 ar
  57   26   28 1
  58   28   58 1
  59   28   59 1
  60   28   60 1
  61   29   30 1
  62   29   31 1
  63   29   61 1
  64   30   31 1
  65   30   62 1
  66   30   63 1
  67   31   64 1
  68   31   65 1

#	End of record

