#	Name: ASD00461023
#	Creating user name:	WinNT
#	Creation time:	15. 06. 2019 18:36

#	Modifying user name:	WinNT
#	Modification time:	15. 06. 2019 18:36

#	Program:	/corina/corina34_cracker 3.40 0067  02.08.2006

@<TRIPOS>MOLECULE
ASD00461023
  47   49    0    0    0
SMALL
NO_CHARGES


@<TRIPOS>ATOM
   1 C1            -0.0167     1.3833     0.0096 C.ar    
   2 C2             0.0021    -0.0041     0.0020 C.ar    
   3 C3             1.1706     2.0890     0.0021 C.ar    
   4 C4             1.2139    -0.6789    -0.0132 C.ar    
   5 O5            -1.1648    -0.7007     0.0099 O.3     
   6 C6             2.3774     1.4139    -0.0130 C.ar    
   7 C7             2.3988     0.0316    -0.0207 C.ar    
   8 C8             3.7158    -0.7008    -0.0367 C.3     
   9 N9             4.6677    -0.0161     0.8482 N.3     
  10 C10            5.6992    -0.9441     1.3306 C.3     
  11 C11            6.6552    -0.2075     2.2332 C.ar    
  12 C12            6.4086    -0.1401     3.5892 C.ar    
  13 C13            7.7813     0.3950     1.7015 C.ar    
  14 C14            7.2935     0.5414     4.4227 C.ar    
  15 C15            8.6631     1.0722     2.5240 C.ar    
  16 C16            8.4231     1.1512     3.8811 C.ar    
  17 C17           -2.3744     0.0601     0.0260 C.3     
  18 H18            5.0838     0.7785     0.3860 H       
  19 C19            7.0334     0.6177     5.8814 C.ar    
  20 C20            8.0382     0.2905     6.7889 C.ar    
  21 C21            7.7910     0.3631     8.1451 C.ar    
  22 C22            6.5483     0.7600     8.6050 C.ar    
  23 C23            5.5456     1.0865     7.7103 C.ar    
  24 C24            5.7827     1.0232     6.3499 C.ar    
  25 F25            4.8032     1.3427     5.4760 F       
  26 C26            4.2699    -0.7226    -1.4626 C.3     
  27 H27           -0.9590     1.9110     0.0170 H       
  28 H28            1.1565     3.1689     0.0077 H       
  29 H29            1.2312    -1.7587    -0.0188 H       
  30 H30            3.3047     1.9675    -0.0189 H       
  31 H31            3.5672    -1.7231     0.3111 H       
  32 H32            5.2275    -1.7551     1.8854 H       
  33 H33            6.2449    -1.3545     0.4809 H       
  34 H34            5.5312    -0.6143     4.0038 H       
  35 H35            7.9728     0.3360     0.6402 H       
  36 H36            9.5409     1.5404     2.1037 H       
  37 H37            9.1120     1.6809     4.5224 H       
  38 H38           -2.4172     0.6932    -0.8603 H       
  39 H39           -3.2290    -0.6164     0.0308 H       
  40 H40           -2.3995     0.6837     0.9196 H       
  41 H41            9.0091    -0.0200     6.4321 H       
  42 H42            8.5698     0.1091     8.8489 H       
  43 H43            6.3603     0.8147     9.6671 H       
  44 H44            4.5771     1.3954     8.0750 H       
  45 H45            5.2224    -1.2524    -1.4742 H       
  46 H46            3.5636    -1.2307    -2.1192 H       
  47 H47            4.4185     0.2997    -1.8104 H       
@<TRIPOS>BOND
   1    1    2 ar
   2    1    3 ar
   3    1   27 1
   4    2    4 ar
   5    2    5 1
   6    3    6 ar
   7    3   28 1
   8    4    7 ar
   9    4   29 1
  10    5   17 1
  11    6    7 ar
  12    6   30 1
  13    7    8 1
  14    8    9 1
  15    8   26 1
  16    8   31 1
  17    9   10 1
  18    9   18 1
  19   10   11 1
  20   10   32 1
  21   10   33 1
  22   11   12 ar
  23   11   13 ar
  24   12   14 ar
  25   12   34 1
  26   13   15 ar
  27   13   35 1
  28   14   19 1
  29   14   16 ar
  30   15   16 ar
  31   15   36 1
  32   16   37 1
  33   17   38 1
  34   17   39 1
  35   17   40 1
  36   19   20 ar
  37   19   24 ar
  38   20   21 ar
  39   20   41 1
  40   21   22 ar
  41   21   42 1
  42   22   23 ar
  43   22   43 1
  44   23   24 ar
  45   23   44 1
  46   24   25 1
  47   26   45 1
  48   26   46 1
  49   26   47 1

#	End of record

