#	Name: ASD01811061
#	Creating user name:	WinNT
#	Creation time:	15. 06. 2019 19:25

#	Modifying user name:	WinNT
#	Modification time:	15. 06. 2019 19:25

#	Program:	/corina/corina34_cracker 3.40 0067  02.08.2006

@<TRIPOS>MOLECULE
ASD01811061
  43   46    0    0    0
SMALL
NO_CHARGES


@<TRIPOS>ATOM
   1 C1            -0.0169     1.3918     0.0097 C.ar    
   2 C2             0.0021    -0.0041     0.0020 C.ar    
   3 C3            -1.2628    -0.8073    -0.0060 C.3     
   4 C4            -2.4663    -0.0175     0.3932 C.2     
   5 C5            -2.5130     1.3234     0.4100 C.2     
   6 C6            -1.3108     2.1044     0.0380 C.2     
   7 C7            -1.4840    -1.3609    -1.4151 C.3     
   8 C8            -2.6845    -2.2718    -1.4142 C.ar    
   9 C9            -3.9419    -1.7548    -1.6693 C.ar    
  10 C10           -5.0449    -2.5845    -1.6697 C.ar    
  11 C11           -4.8900    -3.9452    -1.4125 C.ar    
  12 C12           -3.6211    -4.4605    -1.1562 C.ar    
  13 C13           -2.5243    -3.6227    -1.1638 C.ar    
  14 C14           -6.0722    -4.8420    -1.4112 C.ar    
  15 C15           -5.9174    -6.2027    -1.1540 C.ar    
  16 C16           -7.0204    -7.0323    -1.1540 C.ar    
  17 C17           -8.2778    -6.5153    -1.4092 C.ar    
  18 C18           -8.4372    -5.1655    -1.6656 C.ar    
  19 C19           -7.3419    -4.3256    -1.6615 C.ar    
  20 O20           -1.3858     3.2871    -0.2327 O.2     
  21 C21           -3.7571     2.0170     0.7965 C.2     
  22 O22           -4.7418     1.3738     1.1004 O.2     
  23 O23           -3.8006     3.3634     0.8123 O.3     
  24 C24            1.1922     2.0888     0.0019 C.ar    
  25 N25            2.3197     1.3956    -0.0064 N.ar    
  26 C26            2.2997     0.0768    -0.0066 C.ar    
  27 N27            1.1776    -0.6151    -0.0025 N.ar    
  28 H28           -1.1498    -1.6448     0.6824 H       
  29 H29           -3.3534    -0.5591     0.6868 H       
  30 H30           -1.6543    -0.5360    -2.1070 H       
  31 H31           -0.6029    -1.9213    -1.7278 H       
  32 H32           -4.0608    -0.7000    -1.8682 H       
  33 H33           -6.0262    -2.1798    -1.8687 H       
  34 H34           -3.4954    -5.5144    -0.9562 H       
  35 H35           -1.5403    -4.0211    -0.9653 H       
  36 H36           -4.9360    -6.6074    -0.9553 H       
  37 H37           -6.9015    -8.0871    -0.9548 H       
  38 H38           -9.1381    -7.1681    -1.4085 H       
  39 H39           -9.4211    -4.7671    -1.8645 H       
  40 H40           -7.4676    -3.2717    -1.8614 H       
  41 H41           -4.6374     3.7726     1.0722 H       
  42 H42            1.2075     3.1687     0.0022 H       
  43 H43            3.2387    -0.4568    -0.0107 H       
@<TRIPOS>BOND
   1    1    2 ar
   2    1   24 ar
   3    1    6 1
   4    2    3 1
   5    2   27 ar
   6    3    4 1
   7    3    7 1
   8    3   28 1
   9    4    5 2
  10    4   29 1
  11    5    6 1
  12    5   21 1
  13    6   20 2
  14    7    8 1
  15    7   30 1
  16    7   31 1
  17    8    9 ar
  18    8   13 ar
  19    9   10 ar
  20    9   32 1
  21   10   11 ar
  22   10   33 1
  23   11   12 ar
  24   11   14 1
  25   12   13 ar
  26   12   34 1
  27   13   35 1
  28   14   15 ar
  29   14   19 ar
  30   15   16 ar
  31   15   36 1
  32   16   17 ar
  33   16   37 1
  34   17   18 ar
  35   17   38 1
  36   18   19 ar
  37   18   39 1
  38   19   40 1
  39   21   22 2
  40   21   23 1
  41   23   41 1
  42   24   25 ar
  43   24   42 1
  44   25   26 ar
  45   26   27 ar
  46   26   43 1

#	End of record

