#	Name: ASD01350058
#	Creating user name:	WinNT
#	Creation time:	15. 06. 2019 19:16

#	Modifying user name:	WinNT
#	Modification time:	15. 06. 2019 19:16

#	Program:	/corina/corina34_cracker 3.40 0067  02.08.2006

@<TRIPOS>MOLECULE
ASD01350058
  76   77    0    0    0
SMALL
NO_CHARGES


@<TRIPOS>ATOM
   1 C1            -0.0187     1.5258     0.0104 C.3     
   2 C2             0.0021    -0.0041     0.0020 C.3     
   3 C3            -1.4333    -0.5336     0.0129 C.3     
   4 C4            -1.4126    -2.0635     0.0045 C.3     
   5 C5            -2.8479    -2.5931     0.0153 C.3     
   6 C6            -2.8272    -4.1229     0.0069 C.3     
   7 C7            -4.2626    -4.6525     0.0178 C.3     
   8 C8            -4.2418    -6.1823     0.0094 C.3     
   9 C9            -5.6772    -6.7119     0.0202 C.3     
  10 C10           -5.6568    -8.2187     0.0119 C.2     
  11 O11           -4.5984    -8.8108    -0.0014 O.2     
  12 N12           -6.8147    -8.9084     0.0193 N.am    
  13 C13           -6.7948   -10.3733     0.0112 C.3     
  14 C14           -6.7744   -10.8832     1.4292 C.ar    
  15 C15           -7.9650   -11.1328     2.0891 C.ar    
  16 C16           -7.9574   -11.6005     3.3895 C.ar    
  17 C17           -6.7544   -11.8224     4.0405 C.ar    
  18 C18           -5.5487   -11.5710     3.3760 C.ar    
  19 C19           -5.5687   -11.1048     2.0626 C.ar    
  20 C20           -4.2573   -11.8051     4.0630 C.ar    
  21 C21           -3.2598   -12.5541     3.4364 C.ar    
  22 C22           -2.0642   -12.7716     4.0709 C.ar    
  23 C23           -1.8439   -12.2420     5.3469 C.ar    
  24 C24           -2.8444   -11.4913     5.9734 C.ar    
  25 C25           -4.0371   -11.2715     5.3341 C.ar    
  26 C26           -0.5598   -12.4752     6.0304 C.2     
  27 O27            0.3145   -13.1321     5.4822 O.co2   
  28 O28           -0.3678   -12.0119     7.1462 O.co2   
  29 O29           -6.7455   -12.2816     5.3184 O.3     
  30 C30           -8.0144   -12.5150     5.9328 C.3     
  31 C31           -8.0932    -8.1933     0.0353 C.3     
  32 C32           -8.5520    -7.9366    -1.4015 C.3     
  33 N33           -9.8340    -7.2195    -1.3854 N.3     
  34 C34          -10.1900    -6.7474    -2.7301 C.3     
  35 C35          -10.8999    -8.0593    -0.8229 C.3     
  36 H36            1.0039     1.9031     0.0027 H       
  37 H37           -0.5459     1.8868    -0.8726 H       
  38 H38           -0.5289     1.8773     0.9072 H       
  39 H39            0.5123    -0.3556    -0.8948 H       
  40 H40            0.5293    -0.3651     0.8851 H       
  41 H41           -1.9435    -0.1821     0.9097 H       
  42 H42           -1.9605    -0.1726    -0.8702 H       
  43 H43           -0.9024    -2.4150    -0.8923 H       
  44 H44           -0.8854    -2.4246     0.8875 H       
  45 H45           -3.3581    -2.2415     0.9121 H       
  46 H46           -3.3751    -2.2320    -0.8677 H       
  47 H47           -2.3170    -4.4744    -0.8899 H       
  48 H48           -2.3000    -4.4840     0.8900 H       
  49 H49           -4.7728    -4.3010     0.9146 H       
  50 H50           -4.7898    -4.2914    -0.8653 H       
  51 H51           -3.7316    -6.5338    -0.8874 H       
  52 H52           -3.7146    -6.5434     0.8924 H       
  53 H53           -6.1874    -6.3604     0.9170 H       
  54 H54           -6.2044    -6.3508    -0.8628 H       
  55 H55           -7.6846   -10.7459    -0.4961 H       
  56 H56           -5.9049   -10.7217    -0.5130 H       
  57 H57           -8.9048   -10.9608     1.5855 H       
  58 H58           -8.8899   -11.7929     3.8991 H       
  59 H59           -4.6417   -10.9089     1.5442 H       
  60 H60           -3.4302   -12.9627     2.4513 H       
  61 H61           -1.2929   -13.3517     3.5861 H       
  62 H62           -2.6758   -11.0818     6.9584 H       
  63 H63           -4.8097   -10.6920     5.8175 H       
  64 H64           -7.8646   -12.8789     6.9493 H       
  65 H65           -8.5817   -11.5847     5.9598 H       
  66 H66           -8.5650   -13.2597     5.3578 H       
  67 H67           -8.8398    -8.7954     0.5531 H       
  68 H68           -7.9709    -7.2420     0.5531 H       
  69 H69           -7.8054    -7.3345    -1.9193 H       
  70 H70           -8.6743    -8.8879    -1.9193 H       
  71 H71          -10.2749    -7.6000    -3.4039 H       
  72 H72          -11.1431    -6.2201    -2.6896 H       
  73 H73           -9.4162    -6.0718    -3.0948 H       
  74 H74          -10.6422    -8.3375     0.1990 H       
  75 H75          -11.8380    -7.5041    -0.8228 H       
  76 H76          -11.0106    -8.9594    -1.4276 H       
@<TRIPOS>BOND
   1    1    2 1
   2    1   36 1
   3    1   37 1
   4    1   38 1
   5    2    3 1
   6    2   39 1
   7    2   40 1
   8    3    4 1
   9    3   41 1
  10    3   42 1
  11    4    5 1
  12    4   43 1
  13    4   44 1
  14    5    6 1
  15    5   45 1
  16    5   46 1
  17    6    7 1
  18    6   47 1
  19    6   48 1
  20    7    8 1
  21    7   49 1
  22    7   50 1
  23    8    9 1
  24    8   51 1
  25    8   52 1
  26    9   10 1
  27    9   53 1
  28    9   54 1
  29   10   11 2
  30   10   12 am
  31   12   13 1
  32   12   31 1
  33   13   14 1
  34   13   55 1
  35   13   56 1
  36   14   15 ar
  37   14   19 ar
  38   15   16 ar
  39   15   57 1
  40   16   17 ar
  41   16   58 1
  42   17   18 ar
  43   17   29 1
  44   18   19 ar
  45   18   20 1
  46   19   59 1
  47   20   21 ar
  48   20   25 ar
  49   21   22 ar
  50   21   60 1
  51   22   23 ar
  52   22   61 1
  53   23   24 ar
  54   23   26 1
  55   24   25 ar
  56   24   62 1
  57   25   63 1
  58   26   27 ar
  59   26   28 ar
  60   29   30 1
  61   30   64 1
  62   30   65 1
  63   30   66 1
  64   31   32 1
  65   31   67 1
  66   31   68 1
  67   32   33 1
  68   32   69 1
  69   32   70 1
  70   33   34 1
  71   33   35 1
  72   34   71 1
  73   34   72 1
  74   34   73 1
  75   35   74 1
  76   35   75 1
  77   35   76 1

#	End of record

