#	Name: ASD05740227
#	Creating user name:	WinNT
#	Creation time:	15. 06. 2019 21:03

#	Modifying user name:	WinNT
#	Modification time:	15. 06. 2019 21:03

#	Program:	/corina/corina34_cracker 3.40 0067  02.08.2006

@<TRIPOS>MOLECULE
ASD05740227
  65   70    0    0    0
SMALL
NO_CHARGES


@<TRIPOS>ATOM
   1 C1             0.9718    -1.3058    -0.4880 C.3     
   2 N2             0.1383    -0.5278     0.4391 N.3     
   3 C3            -1.1881    -0.9729     0.4153 C.ar    
   4 C4            -2.1394    -0.3649     1.2240 C.ar    
   5 C5            -3.4481    -0.8042     1.2005 C.ar    
   6 C6            -3.8131    -1.8544     0.3684 C.ar    
   7 C7            -2.8619    -2.4627    -0.4400 C.ar    
   8 C8            -1.5545    -2.0191    -0.4214 C.ar    
   9 N9            -5.1408    -2.3003     0.3449 N.pl3   
  10 C10           -6.1748    -1.3998     0.5105 C.ar    
  11 N11           -5.8820    -0.1165     0.6912 N.ar    
  12 N12           -7.4214    -1.8476     0.4778 N.ar    
  13 C13           -8.4392    -1.0109     0.6332 C.ar    
  14 C14           -8.1658     0.3603     0.8333 C.ar    
  15 C15           -6.8328     0.7858     0.8544 C.ar    
  16 N16           -9.7396    -1.4440     0.6038 N.am    
  17 C17          -10.7594    -0.5817     0.7628 C.2     
  18 C18          -10.5427     0.7963     0.9650 C.2     
  19 C19           -9.2776     1.2903     1.0055 C.2     
  20 C20          -10.0225    -2.8663     0.3958 C.3     
  21 O21          -11.9025    -1.0034     0.7307 O.2     
  22 C22           -9.9118    -3.5977     1.7087 C.ar    
  23 C23           -9.9713    -4.9781     1.7380 C.ar    
  24 C24            0.6857    -0.5763     1.8021 C.3     
  25 C25            2.1069    -0.0084     1.7987 C.3     
  26 N26            2.9404    -0.7865     0.8716 N.3     
  27 C27            2.3930    -0.7380    -0.4914 C.3     
  28 C28           -9.8698    -5.6493     2.9425 C.ar    
  29 C29           -9.7092    -4.9402     4.1180 C.ar    
  30 C30           -9.6499    -3.5594     4.0901 C.ar    
  31 C31           -9.7448    -2.8876     2.8845 C.ar    
  32 C32          -10.1475    -5.7519     0.4569 C.3     
  33 C33            4.3328    -0.3191     0.8967 C.3     
  34 Cl34          -9.6699    -1.1536     2.8485 Cl      
  35 C35           -9.1166    -6.8370     0.1396 C.3     
  36 C36          -10.5315    -7.2285     0.5705 C.3     
  37 H37            0.9971    -2.3474    -0.1676 H       
  38 H38            0.5531    -1.2442    -1.4925 H       
  39 H39           -1.8553     0.4514     1.8717 H       
  40 H40           -4.1878    -0.3314     1.8294 H       
  41 H41           -3.1457    -3.2799    -1.0866 H       
  42 H42           -0.8147    -2.4922    -1.0501 H       
  43 H43           -5.3339    -3.2416     0.2123 H       
  44 H44           -6.5871     1.8266     1.0054 H       
  45 H45          -11.3847     1.4614     1.0884 H       
  46 H46           -9.0992     2.3442     1.1602 H       
  47 H47          -11.0312    -2.9820    -0.0007 H       
  48 H48           -9.3042    -3.2798    -0.3122 H       
  49 H49            0.0585     0.0173     2.4672 H       
  50 H50            0.7077    -1.6095     2.1486 H       
  51 H51            2.0816     1.0331     1.4783 H       
  52 H52            2.5256    -0.0701     2.8032 H       
  53 H53            3.0202    -1.3315    -1.1565 H       
  54 H54            2.3710     0.2953    -0.8378 H       
  55 H55           -9.9165    -6.7281     2.9649 H       
  56 H56           -9.6303    -5.4651     5.0586 H       
  57 H57           -9.5251    -3.0055     5.0087 H       
  58 H58          -10.5583    -5.1877    -0.3804 H       
  59 H59            4.7348    -0.4287     1.9039 H       
  60 H60            4.9276    -0.9119     0.2017 H       
  61 H61            4.3693     0.7299     0.6030 H       
  62 H62           -8.8495    -6.9870    -0.9065 H       
  63 H63           -8.3110    -6.9912     0.8574 H       
  64 H64          -10.6567    -7.6403     1.5720 H       
  65 H65          -11.1952    -7.6361    -0.1920 H       
@<TRIPOS>BOND
   1    1    2 1
   2    1   27 1
   3    1   37 1
   4    1   38 1
   5    2    3 1
   6    2   24 1
   7    3    4 ar
   8    3    8 ar
   9    4    5 ar
  10    4   39 1
  11    5    6 ar
  12    5   40 1
  13    6    7 ar
  14    6    9 1
  15    7    8 ar
  16    7   41 1
  17    8   42 1
  18    9   10 1
  19    9   43 1
  20   10   11 ar
  21   10   12 ar
  22   11   15 ar
  23   12   13 ar
  24   13   14 ar
  25   13   16 1
  26   14   15 ar
  27   14   19 1
  28   15   44 1
  29   16   17 am
  30   16   20 1
  31   17   18 1
  32   17   21 2
  33   18   19 2
  34   18   45 1
  35   19   46 1
  36   20   22 1
  37   20   47 1
  38   20   48 1
  39   22   23 ar
  40   22   31 ar
  41   23   28 ar
  42   23   32 1
  43   24   25 1
  44   24   49 1
  45   24   50 1
  46   25   26 1
  47   25   51 1
  48   25   52 1
  49   26   27 1
  50   26   33 1
  51   27   53 1
  52   27   54 1
  53   28   29 ar
  54   28   55 1
  55   29   30 ar
  56   29   56 1
  57   30   31 ar
  58   30   57 1
  59   31   34 1
  60   32   35 1
  61   32   36 1
  62   32   58 1
  63   33   59 1
  64   33   60 1
  65   33   61 1
  66   35   36 1
  67   35   62 1
  68   35   63 1
  69   36   64 1
  70   36   65 1

#	End of record

