#	Name: ASD00069450
#	Creating user name:	WinNT
#	Creation time:	15. 06. 2019 18:29

#	Modifying user name:	WinNT
#	Modification time:	15. 06. 2019 18:29

#	Program:	/corina/corina34_cracker 3.40 0067  02.08.2006

@<TRIPOS>MOLECULE
ASD00069450
  61   64    0    0    0
SMALL
NO_CHARGES


@<TRIPOS>ATOM
   1 C1            -0.0287     1.3897     0.0070 C.ar    
   2 C2            -0.0022     0.0028    -0.0094 C.ar    
   3 C3             1.2201    -0.6670    -0.0448 C.ar    
   4 C4             2.4040     0.0583    -0.0635 C.ar    
   5 C5             2.3673     1.4420    -0.0469 C.ar    
   6 C6             1.1542     2.1047    -0.0118 C.ar    
   7 N7             1.2537    -2.0673    -0.0611 N.3     
   8 C8             1.9242    -2.5636    -1.2696 C.3     
   9 C9             1.8144    -4.0890    -1.3255 C.3     
  10 C10            2.4646    -4.6888    -0.0757 C.3     
  11 C11            1.7800    -4.1188     1.1697 C.3     
  12 C12            1.8908    -2.5925     1.1533 C.3     
  13 N13           -1.2000    -0.7225     0.0101 N.am    
  14 C14           -2.2622    -0.2512     0.6927 C.2     
  15 C15           -3.5587    -0.9484     0.6120 C.2     
  16 O16           -2.1513     0.7494     1.3752 O.2     
  17 N17           -4.7075    -0.5745     1.2527 N.pl3   
  18 C18           -5.6646    -1.4688     0.9195 C.2     
  19 C19           -5.0871    -2.3790     0.0782 C.2     
  20 N20           -3.8056    -2.0305    -0.0923 N.2     
  21 C21           -5.7632    -3.5449    -0.5411 C.ar    
  22 C22           -7.1366    -3.7495    -0.3768 C.ar    
  23 C23           -7.7253    -4.8466    -0.9699 C.ar    
  24 N24           -7.0105    -5.6961    -1.6832 N.ar    
  25 C25           -5.7128    -5.5396    -1.8627 C.ar    
  26 C26           -5.0458    -4.4660    -1.3098 C.ar    
  27 C27           -4.9500    -6.5437    -2.6880 C.3     
  28 C28            2.3043    -6.2102    -0.0961 C.3     
  29 C29            2.9819    -6.7778    -1.3449 C.3     
  30 F30            3.5909    -0.5860    -0.0975 F       
  31 N31            2.7262    -8.2220    -1.4273 N.3     
  32 C32            2.9544    -6.8083     1.1532 C.3     
  33 H33           -0.9742     1.9112     0.0300 H       
  34 H34            3.2886     2.0054    -0.0611 H       
  35 H35            1.1309     3.1844     0.0007 H       
  36 H36            1.4495    -2.1328    -2.1512 H       
  37 H37            2.9752    -2.2758    -1.2460 H       
  38 H38            0.7638    -4.3771    -1.3631 H       
  39 H39            2.3256    -4.4583    -2.2145 H       
  40 H40            3.5241    -4.4334    -0.0580 H       
  41 H41            0.7289    -4.4074     1.1714 H       
  42 H42            2.2666    -4.5094     2.0634 H       
  43 H43            2.9420    -2.3045     1.1655 H       
  44 H44            1.3918    -2.1827     2.0314 H       
  45 H45           -1.2651    -1.5642    -0.4677 H       
  46 H46           -4.8155     0.1910     1.8386 H       
  47 H47           -6.6913    -1.4652     1.2544 H       
  48 H48           -7.7276    -3.0587     0.2063 H       
  49 H49           -8.7855    -5.0130    -0.8486 H       
  50 H50           -3.9835    -4.3439    -1.4610 H       
  51 H51           -4.9499    -6.2307    -3.7321 H       
  52 H52           -3.9234    -6.6057    -2.3272 H       
  53 H53           -5.4251    -7.5209    -2.6017 H       
  54 H54            1.2443    -6.4638    -0.1109 H       
  55 H55            2.5803    -6.2865    -2.2312 H       
  56 H56            4.0561    -6.6017    -1.2873 H       
  57 H57            3.1637    -8.6206    -2.2444 H       
  58 H58            3.0316    -8.6917    -0.5881 H       
  59 H59            4.0144    -6.5548     1.1680 H       
  60 H60            2.4716    -6.4040     2.0429 H       
  61 H61            2.8402    -7.8922     1.1387 H       
@<TRIPOS>BOND
   1    1    2 ar
   2    1    6 ar
   3    1   33 1
   4    2    3 ar
   5    2   13 1
   6    3    4 ar
   7    3    7 1
   8    4    5 ar
   9    4   30 1
  10    5    6 ar
  11    5   34 1
  12    6   35 1
  13    7    8 1
  14    7   12 1
  15    8    9 1
  16    8   36 1
  17    8   37 1
  18    9   10 1
  19    9   38 1
  20    9   39 1
  21   10   11 1
  22   10   28 1
  23   10   40 1
  24   11   12 1
  25   11   41 1
  26   11   42 1
  27   12   43 1
  28   12   44 1
  29   13   14 am
  30   13   45 1
  31   14   15 1
  32   14   16 2
  33   15   17 1
  34   15   20 2
  35   17   18 1
  36   17   46 1
  37   18   19 2
  38   18   47 1
  39   19   20 1
  40   19   21 1
  41   21   22 ar
  42   21   26 ar
  43   22   23 ar
  44   22   48 1
  45   23   24 ar
  46   23   49 1
  47   24   25 ar
  48   25   26 ar
  49   25   27 1
  50   26   50 1
  51   27   51 1
  52   27   52 1
  53   27   53 1
  54   28   29 1
  55   28   32 1
  56   28   54 1
  57   29   31 1
  58   29   55 1
  59   29   56 1
  60   31   57 1
  61   31   58 1
  62   32   59 1
  63   32   60 1
  64   32   61 1

#	End of record

