#	Name: ASD06170103
#	Creating user name:	WinNT
#	Creation time:	15. 06. 2019 21:05

#	Modifying user name:	WinNT
#	Modification time:	15. 06. 2019 21:05

#	Program:	/corina/corina34_cracker 3.40 0067  02.08.2006

@<TRIPOS>MOLECULE
ASD06170103
  75   80    0    0    0
SMALL
NO_CHARGES


@<TRIPOS>ATOM
   1 N1             0.1165     1.7580    -0.0794 N.pl3   
   2 N2             0.0295     0.3810     0.1461 N.am    
   3 C3             1.2657    -0.0897     0.4122 C.2     
   4 C4             2.1755     1.0650     0.3480 C.2     
   5 C5             1.3952     2.1627     0.0414 C.2     
   6 C6             3.6268     1.0529     0.5676 C.2     
   7 O7             4.2635     2.0866     0.4840 O.2     
   8 N8             4.2541    -0.1031     0.8620 N.am    
   9 C9            -1.0146     2.6301    -0.4050 C.3     
  10 C10           -1.5648     3.2528     0.8797 C.3     
  11 N11           -2.6991     4.1274     0.5533 N.3     
  12 C12           -3.4037     4.5571     1.7751 C.3     
  13 C13           -3.4056     6.1003     1.7829 C.3     
  14 C14           -3.2031     6.4576     0.2868 C.3     
  15 C15           -2.2472     5.3305    -0.1774 C.3     
  16 C16           -1.1427    -0.3809     0.1036 C.ar    
  17 C17           -2.0543    -0.1983    -0.9282 C.ar    
  18 C18           -3.2105    -0.9526    -0.9676 C.ar    
  19 C19           -3.4613    -1.8885     0.0191 C.ar    
  20 C20           -2.5556    -2.0728     1.0477 C.ar    
  21 C21           -1.3947    -1.3258     1.0898 C.ar    
  22 O22            1.5686    -1.2425     0.6574 O.2     
  23 C23            1.8915     3.5753    -0.1300 C.3     
  24 C24            5.6530    -0.1491     0.9054 C.ar    
  25 C25            6.3760     0.9928     1.2252 C.ar    
  26 C26            7.7567     0.9462     1.2682 C.ar    
  27 C27            8.4203    -0.2432     0.9915 C.ar    
  28 C28            7.6975    -1.3825     0.6724 C.ar    
  29 C29            6.3173    -1.3377     0.6344 C.ar    
  30 O30            9.7788    -0.2894     1.0333 O.3     
  31 N31           11.5836    -0.2191     4.7409 N.ar    
  32 C32           10.2822    -0.0843     4.6376 C.ar    
  33 C33            9.6395    -0.1027     3.4065 C.ar    
  34 C34           10.3793    -0.2670     2.2484 C.ar    
  35 C35           11.7799    -0.4112     2.3715 C.ar    
  36 C36           12.5955    -0.5812     1.2432 C.ar    
  37 C37           13.9412    -0.7169     1.3944 C.ar    
  38 C38           14.5245    -0.6890     2.6644 C.ar    
  39 C39           13.7509    -0.5242     3.7911 C.ar    
  40 C40           12.3601    -0.3815     3.6631 C.ar    
  41 O41           15.8701    -0.8267     2.7883 O.3     
  42 C42           16.6188    -0.9949     1.5828 C.3     
  43 F43            8.4610     2.0565     1.5788 F       
  44 H44            3.7367    -0.9031     1.0438 H       
  45 H45           -0.6822     3.4202    -1.0782 H       
  46 H46           -1.7967     2.0454    -0.8892 H       
  47 H47           -1.8973     2.4627     1.5530 H       
  48 H48           -0.7827     3.8376     1.3640 H       
  49 H49           -4.4282     4.1851     1.7626 H       
  50 H50           -2.8816     4.1825     2.6555 H       
  51 H51           -4.3601     6.4826     2.1447 H       
  52 H52           -2.5823     6.4836     2.3856 H       
  53 H53           -4.1476     6.4167    -0.2557 H       
  54 H54           -2.7348     7.4359     0.1790 H       
  55 H55           -1.2182     5.5721     0.0888 H       
  56 H56           -2.3358     5.1769    -1.2529 H       
  57 H57           -1.8594     0.5330    -1.6987 H       
  58 H58           -3.9199    -0.8111    -1.7696 H       
  59 H59           -4.3665    -2.4766    -0.0136 H       
  60 H60           -2.7544    -2.8045     1.8168 H       
  61 H61           -0.6859    -1.4730     1.8912 H       
  62 H62            1.8614     4.0900     0.8303 H       
  63 H63            2.9162     3.5579    -0.5010 H       
  64 H64            1.2557     4.0997    -0.8434 H       
  65 H65            5.8596     1.9168     1.4398 H       
  66 H66            8.2137    -2.3065     0.4574 H       
  67 H67            5.7549    -2.2267     0.3897 H       
  68 H68            9.6948     0.0445     5.5347 H       
  69 H69            8.5667     0.0100     3.3532 H       
  70 H70           12.1566    -0.6048     0.2567 H       
  71 H71           14.5657    -0.8479     0.5231 H       
  72 H72           14.2113    -0.5048     4.7679 H       
  73 H73           17.6774    -1.0929     1.8231 H       
  74 H74           16.2789    -1.8925     1.0663 H       
  75 H75           16.4710    -0.1276     0.9393 H       
@<TRIPOS>BOND
   1    1    2 1
   2    1    5 1
   3    1    9 1
   4    2    3 am
   5    2   16 1
   6    3    4 1
   7    3   22 2
   8    4    5 2
   9    4    6 1
  10    5   23 1
  11    6    7 2
  12    6    8 am
  13    8   24 1
  14    8   44 1
  15    9   10 1
  16    9   45 1
  17    9   46 1
  18   10   11 1
  19   10   47 1
  20   10   48 1
  21   11   12 1
  22   11   15 1
  23   12   13 1
  24   12   49 1
  25   12   50 1
  26   13   14 1
  27   13   51 1
  28   13   52 1
  29   14   15 1
  30   14   53 1
  31   14   54 1
  32   15   55 1
  33   15   56 1
  34   16   17 ar
  35   16   21 ar
  36   17   18 ar
  37   17   57 1
  38   18   19 ar
  39   18   58 1
  40   19   20 ar
  41   19   59 1
  42   20   21 ar
  43   20   60 1
  44   21   61 1
  45   23   62 1
  46   23   63 1
  47   23   64 1
  48   24   25 ar
  49   24   29 ar
  50   25   26 ar
  51   25   65 1
  52   26   27 ar
  53   26   43 1
  54   27   28 ar
  55   27   30 1
  56   28   29 ar
  57   28   66 1
  58   29   67 1
  59   30   34 1
  60   31   32 ar
  61   31   40 ar
  62   32   33 ar
  63   32   68 1
  64   33   34 ar
  65   33   69 1
  66   34   35 ar
  67   35   36 ar
  68   35   40 ar
  69   36   37 ar
  70   36   70 1
  71   37   38 ar
  72   37   71 1
  73   38   39 ar
  74   38   41 1
  75   39   40 ar
  76   39   72 1
  77   41   42 1
  78   42   73 1
  79   42   74 1
  80   42   75 1

#	End of record

