#	Name: ASD03090939
#	Creating user name:	WinNT
#	Creation time:	15. 06. 2019 20:29

#	Modifying user name:	WinNT
#	Modification time:	15. 06. 2019 20:29

#	Program:	/corina/corina34_cracker 3.40 0067  02.08.2006

@<TRIPOS>MOLECULE
ASD03090939
  58   62    0    0    0
SMALL
NO_CHARGES


@<TRIPOS>ATOM
   1 N1            -0.0175     1.3432    -0.0860 N.am    
   2 C2             0.0012    -0.0044    -0.0679 C.2     
   3 O3             1.0649    -0.5993    -0.0775 O.2     
   4 N4            -1.1464    -0.6880    -0.0394 N.2     
   5 C5             1.2409     2.0928    -0.1173 C.3     
   6 C6             1.6486     2.3304    -1.5485 C.ar    
   7 C7             1.2211     3.4694    -2.2067 C.ar    
   8 C8             1.5915     3.6921    -3.5174 C.ar    
   9 C9             2.3977     2.7669    -4.1777 C.ar    
  10 C10            2.8254     1.6211    -3.5097 C.ar    
  11 C11            2.4536     1.4114    -2.1972 C.ar    
  12 C12            3.9559     2.3395    -7.5750 C.ar    
  13 C13            3.6068     2.0835    -6.2648 C.ar    
  14 C14            2.7987     3.0006    -5.5869 C.ar    
  15 C15            2.3784     4.1435    -6.2728 C.ar    
  16 C16            2.7740     4.3215    -7.5826 C.ar    
  17 N17            3.5376     3.4311    -8.1863 N.ar    
  18 S18            0.2595    -3.0387    -0.0302 S.3     
  19 C19           -1.1280    -2.0187    -0.0215 C.2     
  20 N20           -2.1987    -2.8518     0.0077 N.pl3   
  21 C21           -1.9391    -4.1884     0.0221 C.2     
  22 C22           -0.6633    -4.5510     0.0062 C.2     
  23 O23           -7.3741    -0.8848     0.0781 O.3     
  24 C24           -8.4123    -1.7492    -0.3960 C.3     
  25 C25           -8.2087    -3.1342     0.2329 C.3     
  26 O26           -6.9212    -3.6205    -0.1616 O.3     
  27 C27           -5.8806    -2.7488    -0.0610 C.ar    
  28 C28           -6.1064    -1.3819     0.0568 C.ar    
  29 C29           -4.5831    -3.2357    -0.0763 C.ar    
  30 C30           -3.5113    -2.3592     0.0230 C.ar    
  31 C31           -3.7397    -0.9950     0.1377 C.ar    
  32 C32           -5.0330    -0.5092     0.1545 C.ar    
  33 F33           -8.2679    -3.0328     1.6270 F       
  34 F34           -9.2025    -4.0087    -0.2198 F       
  35 F35           -9.6595    -1.2390    -0.0199 F       
  36 F36           -8.3434    -1.8491    -1.7897 F       
  37 C37           -0.1141    -5.9542     0.0171 C.3     
  38 C38           -1.2961     2.0582    -0.0806 C.3     
  39 H39            1.1060     3.0502     0.3858 H       
  40 H40            2.0170     1.5211     0.3915 H       
  41 H41            0.5961     4.1856    -1.6941 H       
  42 H42            1.2569     4.5815    -4.0305 H       
  43 H43            3.4503     0.9008    -4.0167 H       
  44 H44            2.7884     0.5261    -1.6770 H       
  45 H45            4.5836     1.6389    -8.1056 H       
  46 H46            3.9525     1.1876    -5.7706 H       
  47 H47            1.7528     4.8763    -5.7849 H       
  48 H48            2.4539     5.2014    -8.1210 H       
  49 H49           -2.7344    -4.9188     0.0454 H       
  50 H50           -4.4058    -4.2972    -0.1662 H       
  51 H51           -2.9060    -0.3127     0.2139 H       
  52 H52           -5.2085     0.5527     0.2435 H       
  53 H53            0.9752    -5.9182    -0.0005 H       
  54 H54           -0.4460    -6.4673     0.9197 H       
  55 H55           -0.4741    -6.4922    -0.8598 H       
  56 H56           -1.6010     2.2495     0.9483 H       
  57 H57           -1.1850     3.0052    -0.6087 H       
  58 H58           -2.0536     1.4519    -0.5772 H       
@<TRIPOS>BOND
   1    1    2 am
   2    1    5 1
   3    1   38 1
   4    2    3 2
   5    2    4 1
   6    4   19 2
   7    5    6 1
   8    5   39 1
   9    5   40 1
  10    6    7 ar
  11    6   11 ar
  12    7    8 ar
  13    7   41 1
  14    8    9 ar
  15    8   42 1
  16    9   10 ar
  17    9   14 1
  18   10   11 ar
  19   10   43 1
  20   11   44 1
  21   12   13 ar
  22   12   17 ar
  23   12   45 1
  24   13   14 ar
  25   13   46 1
  26   14   15 ar
  27   15   16 ar
  28   15   47 1
  29   16   17 ar
  30   16   48 1
  31   18   19 1
  32   18   22 1
  33   19   20 1
  34   20   21 1
  35   20   30 1
  36   21   22 2
  37   21   49 1
  38   22   37 1
  39   23   24 1
  40   23   28 1
  41   24   25 1
  42   24   35 1
  43   24   36 1
  44   25   26 1
  45   25   33 1
  46   25   34 1
  47   26   27 1
  48   27   28 ar
  49   27   29 ar
  50   28   32 ar
  51   29   30 ar
  52   29   50 1
  53   30   31 ar
  54   31   32 ar
  55   31   51 1
  56   32   52 1
  57   37   53 1
  58   37   54 1
  59   37   55 1
  60   38   56 1
  61   38   57 1
  62   38   58 1

#	End of record

