#	Name: ASD01148366
#	Creating user name:	WinNT
#	Creation time:	15. 06. 2019 19:02

#	Modifying user name:	WinNT
#	Modification time:	15. 06. 2019 19:02

#	Program:	/corina/corina34_cracker 3.40 0067  02.08.2006

@<TRIPOS>MOLECULE
ASD01148366
  61   64    0    0    0
SMALL
NO_CHARGES


@<TRIPOS>ATOM
   1 C1            -0.0221     1.5713     0.1296 C.ar    
   2 C2            -0.0162     0.1894     0.1522 C.ar    
   3 C3             1.1839    -0.4970     0.1461 C.ar    
   4 C4             2.3778     0.1988     0.1170 C.ar    
   5 C5             2.3719     1.5812     0.0935 C.ar    
   6 C6             1.1722     2.2673     0.1010 C.ar    
   7 C7             3.6737     2.3398     0.0628 C.3     
   8 O8             4.6885     1.5954    -0.6412 O.3     
   9 C9             3.5531     3.6115    -0.8105 C.3     
  10 C10            4.0463     3.1312    -2.1621 C.2     
  11 N11            4.6615     2.0089    -1.9930 N.2     
  12 C12            3.8556     3.8274    -3.4497 C.ar    
  13 C13            4.3640     3.2713    -4.6267 C.ar    
  14 C14            3.1620     5.0394    -3.4924 C.ar    
  15 C15            2.9841     5.6887    -4.6932 C.ar    
  16 C16            3.4973     5.1356    -5.8691 C.ar    
  17 C17            4.1862     3.9204    -5.8271 C.ar    
  18 C18            3.3064     5.8323    -7.1575 C.2     
  19 O19            4.2668     6.2705    -7.7594 O.2     
  20 N20            2.0671     5.9819    -7.6656 N.am    
  21 C21            4.7401     3.3241    -7.0954 C.3     
  22 C22            4.1344     2.6889     1.4794 C.3     
  23 F23            4.3009     1.5130     2.2187 F       
  24 F24            5.3508     3.3773     1.4179 F       
  25 F25            3.1727     3.4958     2.0969 F       
  26 C26            1.8626     6.7856    -8.8733 C.3     
  27 C27            1.9816     5.9037   -10.0896 C.ar    
  28 N28            3.1711     5.6589   -10.6031 N.ar    
  29 C29            1.0158     5.3923    -7.0626 C.2     
  30 C30            3.3233     4.8934   -11.6662 C.ar    
  31 C31            2.2303     4.3168   -12.2844 C.ar    
  32 C32            0.9629     4.5515   -11.7728 C.ar    
  33 C33            0.8430     5.3564   -10.6506 C.ar    
  34 O34            1.1718     4.7970    -6.0153 O.2     
  35 O35           -0.2069     5.4630    -7.6208 O.3     
  36 C36           -1.2924     4.8048    -6.9160 C.3     
  37 C37            1.1904    -2.0037     0.1717 C.3     
  38 F38           -0.1265    -2.4753     0.1993 F       
  39 F39            1.8349    -2.4868    -0.9722 F       
  40 F40            1.8687    -2.4479     1.3118 F       
  41 H41           -0.9596     2.1074     0.1298 H       
  42 H42           -0.9491    -0.3543     0.1749 H       
  43 H43            3.3153    -0.3373     0.1130 H       
  44 H44            1.1676     3.3472     0.0830 H       
  45 H45            2.5162     3.9418    -0.8720 H       
  46 H46            4.1915     4.4069    -0.4259 H       
  47 H47            4.8967     2.3324    -4.5942 H       
  48 H48            2.7650     5.4667    -2.5834 H       
  49 H49            2.4476     6.6254    -4.7263 H       
  50 H50            5.7207     3.7535    -7.3008 H       
  51 H51            4.8335     2.2444    -6.9787 H       
  52 H52            4.0668     3.5430    -7.9241 H       
  53 H53            0.8703     7.2357    -8.8465 H       
  54 H54            2.6168     7.5712    -8.9189 H       
  55 H55            4.3138     4.7156   -12.0585 H       
  56 H56            2.3613     3.6915   -13.1551 H       
  57 H57            0.0904     4.1143   -12.2354 H       
  58 H58           -0.1284     5.5602   -10.2250 H       
  59 H59           -2.2203     4.9381    -7.4722 H       
  60 H60           -1.0736     3.7410    -6.8240 H       
  61 H61           -1.3982     5.2412    -5.9228 H       
@<TRIPOS>BOND
   1    1    2 ar
   2    1    6 ar
   3    1   41 1
   4    2    3 ar
   5    2   42 1
   6    3    4 ar
   7    3   37 1
   8    4    5 ar
   9    4   43 1
  10    5    6 ar
  11    5    7 1
  12    6   44 1
  13    7    8 1
  14    7    9 1
  15    7   22 1
  16    8   11 1
  17    9   10 1
  18    9   45 1
  19    9   46 1
  20   10   11 2
  21   10   12 1
  22   12   13 ar
  23   12   14 ar
  24   13   17 ar
  25   13   47 1
  26   14   15 ar
  27   14   48 1
  28   15   16 ar
  29   15   49 1
  30   16   17 ar
  31   16   18 1
  32   17   21 1
  33   18   19 2
  34   18   20 am
  35   20   26 1
  36   20   29 am
  37   21   50 1
  38   21   51 1
  39   21   52 1
  40   22   23 1
  41   22   24 1
  42   22   25 1
  43   26   27 1
  44   26   53 1
  45   26   54 1
  46   27   28 ar
  47   27   33 ar
  48   28   30 ar
  49   29   34 2
  50   29   35 1
  51   30   31 ar
  52   30   55 1
  53   31   32 ar
  54   31   56 1
  55   32   33 ar
  56   32   57 1
  57   33   58 1
  58   35   36 1
  59   36   59 1
  60   36   60 1
  61   36   61 1
  62   37   38 1
  63   37   39 1
  64   37   40 1

#	End of record

