#	Name: ASD01883876
#	Creating user name:	WinNT
#	Creation time:	15. 06. 2019 19:47

#	Modifying user name:	WinNT
#	Modification time:	15. 06. 2019 19:47

#	Program:	/corina/corina34_cracker 3.40 0067  02.08.2006

@<TRIPOS>MOLECULE
ASD01883876
  56   59    0    0    0
SMALL
NO_CHARGES


@<TRIPOS>ATOM
   1 C1             0.5571     1.4173    -1.0315 C.ar    
   2 C2             0.6660     0.0654    -1.1818 C.ar    
   3 C3             1.8838    -0.5747    -0.9150 C.ar    
   4 C4             2.9909     0.1834    -0.4921 C.ar    
   5 C5             2.8648     1.5535    -0.3443 C.ar    
   6 C6             1.6510     2.1703    -0.6131 C.ar    
   7 C7             2.0033    -2.0259    -1.0751 C.2     
   8 O8             3.0591    -2.5770    -0.8433 O.2     
   9 C9             0.8148    -2.8344    -1.5279 C.3     
  10 O10            4.1743    -0.4249    -0.2305 O.3     
  11 C11            4.0443     2.3750     0.1087 C.3     
  12 C12            4.8422     2.8379    -1.1119 C.3     
  13 C13            6.0397     3.6719    -0.6521 C.3     
  14 O14            1.5298     3.5137    -0.4679 O.3     
  15 C15            0.2534     4.0854    -0.7614 C.3     
  16 C16            0.3089     5.5758    -0.5453 C.ar    
  17 C17            0.0594     7.4705     0.8974 C.ar    
  18 C18            0.0088     6.1047     0.6965 C.ar    
  19 C19            0.6654     6.4115    -1.5876 C.ar    
  20 C20            0.7179     7.7780    -1.3919 C.ar    
  21 C21            0.4121     8.3117    -0.1482 C.ar    
  22 O22            0.4621     9.6557     0.0467 O.3     
  23 C23           -0.5552    10.4083    -0.4418 C.ar    
  24 N24           -1.6034     9.8133    -0.9883 N.ar    
  25 C25           -0.4854    11.7937    -0.3565 C.ar    
  26 C26           -1.5255    12.5539    -0.8563 C.ar    
  27 C27           -2.6151    11.8929    -1.4323 C.ar    
  28 C28           -2.6156    10.5017    -1.4763 C.ar    
  29 C29           -3.7577    12.6638    -1.9832 C.2     
  30 N30           -4.8407    12.1699    -2.5497 N.2     
  31 N31           -5.5918    13.1590    -2.8938 N.pl3   
  32 N32           -5.0193    14.2636    -2.5633 N.2     
  33 N33           -3.8918    13.9976    -1.9960 N.2     
  34 H34           -0.3822     1.9068    -1.2426 H       
  35 H35           -0.1871    -0.5118    -1.5064 H       
  36 H36            0.8118    -2.8979    -2.6160 H       
  37 H37            0.8755    -3.8374    -1.1055 H       
  38 H38           -0.1025    -2.3526    -1.1896 H       
  39 H39            4.7616    -0.4884    -0.9961 H       
  40 H40            3.6902     3.2445     0.6625 H       
  41 H41            4.6829     1.7698     0.7521 H       
  42 H42            5.1962     1.9684    -1.6657 H       
  43 H43            4.2035     3.4431    -1.7553 H       
  44 H44            5.6856     4.5415    -0.0983 H       
  45 H45            6.6783     3.0667    -0.0087 H       
  46 H46            6.6081     4.0017    -1.5217 H       
  47 H47           -0.0075     3.8783    -1.7993 H       
  48 H48           -0.4993     3.6507    -0.1038 H       
  49 H49           -0.1755     7.8831     1.8674 H       
  50 H50           -0.2657     5.4495     1.5100 H       
  51 H51            0.9033     5.9956    -2.5555 H       
  52 H52            0.9970     8.4303    -2.2061 H       
  53 H53            0.3718    12.2707     0.0955 H       
  54 H54           -1.4979    13.6323    -0.8031 H       
  55 H55           -3.4540     9.9810    -1.9149 H       
  56 H56           -6.4532    13.0830    -3.3331 H       
@<TRIPOS>BOND
   1    1    2 ar
   2    1    6 ar
   3    1   34 1
   4    2    3 ar
   5    2   35 1
   6    3    4 ar
   7    3    7 1
   8    4    5 ar
   9    4   10 1
  10    5    6 ar
  11    5   11 1
  12    6   14 1
  13    7    8 2
  14    7    9 1
  15    9   36 1
  16    9   37 1
  17    9   38 1
  18   10   39 1
  19   11   12 1
  20   11   40 1
  21   11   41 1
  22   12   13 1
  23   12   42 1
  24   12   43 1
  25   13   44 1
  26   13   45 1
  27   13   46 1
  28   14   15 1
  29   15   16 1
  30   15   47 1
  31   15   48 1
  32   16   19 ar
  33   16   18 ar
  34   17   18 ar
  35   17   21 ar
  36   17   49 1
  37   18   50 1
  38   19   20 ar
  39   19   51 1
  40   20   21 ar
  41   20   52 1
  42   21   22 1
  43   22   23 1
  44   23   25 ar
  45   23   24 ar
  46   24   28 ar
  47   25   26 ar
  48   25   53 1
  49   26   27 ar
  50   26   54 1
  51   27   28 ar
  52   27   29 1
  53   28   55 1
  54   29   30 2
  55   29   33 1
  56   30   31 1
  57   31   32 1
  58   31   56 1
  59   32   33 2

#	End of record

