#	Name: ASD00841328
#	Creating user name:	WinNT
#	Creation time:	15. 06. 2019 18:41

#	Modifying user name:	WinNT
#	Modification time:	15. 06. 2019 18:41

#	Program:	/corina/corina34_cracker 3.40 0067  02.08.2006

@<TRIPOS>MOLECULE
ASD00841328
  80   85    0    0    0
SMALL
NO_CHARGES


@<TRIPOS>ATOM
   1 F1            -0.0973    -3.1246     4.7250 F       
   2 N2            -0.0159     1.3183     0.0093 N.ar    
   3 C3             0.0021    -0.0041     0.0020 C.ar    
   4 C4             1.2069    -0.6955    -0.0132 C.ar    
   5 C5             2.3925     0.0180    -0.0207 C.ar    
   6 C6             2.3308     1.4049    -0.0127 C.ar    
   7 C7             1.0980     2.0259     0.0025 C.ar    
   8 C8             1.2224    -2.2024    -0.0209 C.3     
   9 C9             0.4764    -2.7341    -1.2259 C.2     
  10 O10            2.5880    -2.6957    -0.0100 O.3     
  11 C11            3.3812    -2.3219    -1.0317 C.2     
  12 N12            4.6598    -2.7450    -1.0818 N.am    
  13 O13            2.9442    -1.6031    -1.9086 O.2     
  14 C14            5.5375    -2.3455    -2.1904 C.3     
  15 C15            6.1419    -3.6050    -2.8192 C.3     
  16 C16            6.8366    -4.4295    -1.7331 C.3     
  17 C17            5.8108    -4.8591    -0.6818 C.3     
  18 C18            5.2043    -3.6094    -0.0259 C.3     
  19 C19            7.4712    -5.6709    -2.3633 C.3     
  20 C20            8.4991    -5.2427    -3.4142 C.3     
  21 C21            9.1737    -6.4864    -3.9973 C.3     
  22 N22            9.8316    -7.2381    -2.9210 N.3     
  23 C23            8.8575    -7.7005    -1.9241 C.3     
  24 C24            8.1735    -6.4930    -1.2791 C.3     
  25 H25           10.3634    -8.0109    -3.2924 H       
  26 O26            0.7566    -2.5392    -2.3898 O.2     
  27 N27           -0.5539    -3.4627    -0.7649 N.am    
  28 C28            0.4505    -2.7460     1.1600 C.ar    
  29 C29           -0.5988    -3.4907     0.6311 C.ar    
  30 C30            0.6193    -2.6223     2.5215 C.ar    
  31 C31           -0.2615    -3.2439     3.3894 C.ar    
  32 C32           -1.3224    -3.9967     2.8756 C.ar    
  33 C33           -1.4874    -4.1183     1.4962 C.ar    
  34 C34           -1.0160    -5.8566    -2.0415 C.ar    
  35 C35           -1.3458    -6.8962    -1.1921 C.ar    
  36 C36           -0.1972    -6.0876    -3.1311 C.ar    
  37 C37            0.2916    -7.3581    -3.3714 C.ar    
  38 C38           -0.0379    -8.3976    -2.5217 C.ar    
  39 C39           -0.8566    -8.1666    -1.4321 C.ar    
  40 H40            0.3441    -9.3902    -2.7094 H       
  41 H41           -1.9854    -6.7157    -0.3409 H       
  42 S42           -1.6450    -4.2387    -1.7395 S.o2    
  43 O43           -2.8259    -4.4051    -0.9668 O.2     
  44 O44           -1.6221    -3.5598    -2.9876 O.2     
  45 O45           -1.1673    -0.6919     0.0099 O.3     
  46 C46           -3.5777    -0.8652     0.0330 C.3     
  47 C47           -2.3720     0.0766     0.0260 C.3     
  48 C48           -2.2386    -4.6434     3.7661 C.1     
  49 N49           -2.9655    -5.1564     4.4724 N.1     
  50 H50            3.3442    -0.4925    -0.0322 H       
  51 H51            3.2375     1.9916    -0.0178 H       
  52 H52            1.0444     3.1046     0.0084 H       
  53 H53            4.9579    -1.8054    -2.9390 H       
  54 H54            6.3358    -1.7067    -1.8124 H       
  55 H55            5.3505    -4.1989    -3.2765 H       
  56 H56            6.8686    -3.3191    -3.5797 H       
  57 H57            7.6114    -3.8267    -1.2594 H       
  58 H58            5.0225    -5.4412    -1.1593 H       
  59 H59            6.3018    -5.4659     0.0789 H       
  60 H60            5.9769    -3.0761     0.5281 H       
  61 H61            4.4035    -3.9046     0.6521 H       
  62 H62            6.6972    -6.2755    -2.8360 H       
  63 H63            7.9977    -4.6933    -4.2110 H       
  64 H64            9.2510    -4.6051    -2.9492 H       
  65 H65            8.4232    -7.1168    -4.4743 H       
  66 H66            9.9164    -6.1843    -4.7357 H       
  67 H67            8.1085    -8.3251    -2.4107 H       
  68 H68            9.3706    -8.2801    -1.1566 H       
  69 H69            8.9203    -5.8751    -0.7804 H       
  70 H70            7.4394    -6.8368    -0.5504 H       
  71 H71            1.4404    -2.0397     2.9122 H       
  72 H72           -2.3067    -4.6997     1.0998 H       
  73 H73            0.0602    -5.2755    -3.7949 H       
  74 H74            0.9307    -7.5387    -4.2230 H       
  75 H75           -1.1143    -8.9788    -0.7685 H       
  76 H76           -3.5566    -1.4891    -0.8606 H       
  77 H77           -3.5390    -1.4986     0.9192 H       
  78 H78           -4.4966    -0.2790     0.0452 H       
  79 H79           -2.3931     0.7004     0.9196 H       
  80 H80           -2.4108     0.7099    -0.8602 H       
@<TRIPOS>BOND
   1    1   31 1
   2    2    3 ar
   3    2    7 ar
   4    3    4 ar
   5    3   45 1
   6    4    5 ar
   7    4    8 1
   8    5    6 ar
   9    5   50 1
  10    6    7 ar
  11    6   51 1
  12    7   52 1
  13    8    9 1
  14    8   10 1
  15    8   28 1
  16    9   26 2
  17    9   27 am
  18   10   11 1
  19   11   12 am
  20   11   13 2
  21   12   14 1
  22   12   18 1
  23   14   15 1
  24   14   53 1
  25   14   54 1
  26   15   16 1
  27   15   55 1
  28   15   56 1
  29   16   17 1
  30   16   19 1
  31   16   57 1
  32   17   18 1
  33   17   58 1
  34   17   59 1
  35   18   60 1
  36   18   61 1
  37   19   20 1
  38   19   24 1
  39   19   62 1
  40   20   21 1
  41   20   63 1
  42   20   64 1
  43   21   22 1
  44   21   65 1
  45   21   66 1
  46   22   23 1
  47   22   25 1
  48   23   24 1
  49   23   67 1
  50   23   68 1
  51   24   69 1
  52   24   70 1
  53   27   42 am
  54   27   29 1
  55   28   29 ar
  56   28   30 ar
  57   29   33 ar
  58   30   31 ar
  59   30   71 1
  60   31   32 ar
  61   32   33 ar
  62   32   48 1
  63   33   72 1
  64   34   35 ar
  65   34   36 ar
  66   34   42 1
  67   35   41 1
  68   35   39 ar
  69   36   37 ar
  70   36   73 1
  71   37   38 ar
  72   37   74 1
  73   38   39 ar
  74   38   40 1
  75   39   75 1
  76   42   43 2
  77   42   44 2
  78   45   47 1
  79   46   47 1
  80   46   76 1
  81   46   77 1
  82   46   78 1
  83   47   79 1
  84   47   80 1
  85   48   49 3

#	End of record

