#	Name: ASD01230351
#	Creating user name:	WinNT
#	Creation time:	15. 06. 2019 19:14

#	Modifying user name:	WinNT
#	Modification time:	15. 06. 2019 19:14

#	Program:	/corina/corina34_cracker 3.40 0067  02.08.2006

@<TRIPOS>MOLECULE
ASD01230351
  40   42    0    0    0
SMALL
NO_CHARGES


@<TRIPOS>ATOM
   1 S1            -1.9398    -3.8237    -6.1446 S.o2    
   2 N2            -1.4313    -4.0715    -4.5899 N.am    
   3 C3            -0.1554    -4.1339    -4.2692 C.2     
   4 N4             0.8874    -4.0057    -5.1452 N.pl3   
   5 C5             0.7246    -3.8517    -6.5935 C.3     
   6 C6            -0.5076    -2.9992    -6.9088 C.3     
   7 C7             0.1186    -4.3533    -2.8942 C.2     
   8 C8             1.4203    -4.3910    -2.4504 C.2     
   9 C9             2.4675    -4.2076    -3.3832 C.2     
  10 C10            2.1815    -4.0225    -4.6801 C.2     
  11 S11            1.7772    -4.6630    -0.7465 S.3     
  12 C12            0.1436    -4.6539    -0.0864 C.ar    
  13 C13           -0.5526    -5.8467     0.0659 C.ar    
  14 C14           -1.8325    -5.8359     0.5840 C.ar    
  15 C15           -2.4216    -4.6397     0.9511 C.ar    
  16 C16           -1.7317    -3.4505     0.8008 C.ar    
  17 C17           -0.4494    -3.4544     0.2883 C.ar    
  18 C18           -3.8189    -4.6319     1.5156 C.3     
  19 C19           -3.7963    -4.0363     2.9248 C.3     
  20 C20           -4.7264    -3.7869     0.6193 C.3     
  21 O21           -2.1128    -5.1299    -6.6766 O.2     
  22 O22           -3.0338    -2.9249    -6.0238 O.2     
  23 H23            1.6108    -3.3689    -7.0055 H       
  24 H24            0.6074    -4.8352    -7.0487 H       
  25 H25           -0.6484    -2.9345    -7.9877 H       
  26 H26           -0.3860    -2.0009    -6.4886 H       
  27 H27           -0.6943    -4.4904    -2.1965 H       
  28 H28            3.4953    -4.2165    -3.0516 H       
  29 H29            2.9918    -3.8829    -5.3804 H       
  30 H30           -0.0933    -6.7812    -0.2208 H       
  31 H31           -2.3744    -6.7626     0.7024 H       
  32 H32           -2.1947    -2.5182     1.0885 H       
  33 H33            0.0904    -2.5259     0.1751 H       
  34 H34           -4.1991    -5.6525     1.5586 H       
  35 H35           -3.4161    -3.0156     2.8818 H       
  36 H36           -4.8069    -4.0307     3.3331 H       
  37 H37           -3.1497    -4.6382     3.5633 H       
  38 H38           -4.3462    -2.7663     0.5763 H       
  39 H39           -4.7425    -4.2112    -0.3846 H       
  40 H40           -5.7370    -3.7813     1.0277 H       
@<TRIPOS>BOND
   1    1    2 am
   2    1    6 1
   3    1   21 2
   4    1   22 2
   5    2    3 2
   6    3    4 1
   7    3    7 1
   8    4    5 1
   9    4   10 1
  10    5    6 1
  11    5   23 1
  12    5   24 1
  13    6   25 1
  14    6   26 1
  15    7    8 2
  16    7   27 1
  17    8    9 1
  18    8   11 1
  19    9   10 2
  20    9   28 1
  21   10   29 1
  22   11   12 1
  23   12   13 ar
  24   12   17 ar
  25   13   14 ar
  26   13   30 1
  27   14   15 ar
  28   14   31 1
  29   15   16 ar
  30   15   18 1
  31   16   17 ar
  32   16   32 1
  33   17   33 1
  34   18   19 1
  35   18   20 1
  36   18   34 1
  37   19   35 1
  38   19   36 1
  39   19   37 1
  40   20   38 1
  41   20   39 1
  42   20   40 1

#	End of record

