#	Name: ASD03540503
#	Creating user name:	WinNT
#	Creation time:	15. 06. 2019 20:43

#	Modifying user name:	WinNT
#	Modification time:	15. 06. 2019 20:43

#	Program:	/corina/corina34_cracker 3.40 0067  02.08.2006

@<TRIPOS>MOLECULE
ASD03540503
  57   61    0    0    0
SMALL
NO_CHARGES


@<TRIPOS>ATOM
   1 C1            -0.0184     1.5028     0.0103 C.2     
   2 C2             0.0021    -0.0041     0.0020 C.3     
   3 O3             1.0197     2.1211     0.0037 O.2     
   4 O4            -1.1898     2.1580     0.0194 O.3     
   5 N5             1.3897    -0.4735    -0.0138 N.am    
   6 C6             2.0303    -0.6928     1.1470 C.2     
   7 N7             3.3002    -1.1226     1.2085 N.am    
   8 C8             4.0137    -1.3611     0.0865 C.2     
   9 C9             3.3604    -1.1373    -1.2162 C.ar    
  10 C10            4.0272    -1.3593    -2.4145 C.ar    
  11 C11            3.3608    -1.1308    -3.6177 C.ar    
  12 C12            2.0342    -0.6825    -3.6113 C.ar    
  13 C13            1.3787    -0.4642    -2.4325 C.ar    
  14 C14            2.0246    -0.6918    -1.2240 C.ar    
  15 O15            5.1641    -1.7496     0.1493 O.2     
  16 O16            1.4334    -0.4926     2.1870 O.2     
  17 C17            3.9243    -1.3366     2.5165 C.3     
  18 C18            3.6830    -2.7558     2.9621 C.ar    
  19 C19            4.5851    -3.7482     2.6274 C.ar    
  20 C20            4.3637    -5.0501     3.0361 C.ar    
  21 C21            3.2404    -5.3594     3.7800 C.ar    
  22 C22            2.3387    -4.3668     4.1155 C.ar    
  23 C23            2.5623    -3.0642     3.7105 C.ar    
  24 C24            4.0549    -1.3614    -4.9003 C.2     
  25 N25            3.4116    -1.1408    -6.0639 N.am    
  26 O26            5.2069    -1.7502    -4.9068 O.2     
  27 C27            4.1004    -1.3695    -7.3365 C.3     
  28 O28            0.7090     0.0632   -11.5847 O.3     
  29 C29            1.3717     1.2913   -11.9394 C.3     
  30 O30            2.0363     1.6847   -10.7242 O.3     
  31 C31            2.2681     0.5244   -10.0435 C.ar    
  32 C32            1.4518    -0.4727   -10.5727 C.ar    
  33 C33            3.1241     0.2298    -8.9953 C.ar    
  34 C34            3.1677    -1.0513    -8.4767 C.ar    
  35 C35            2.3582    -2.0407    -9.0020 C.ar    
  36 C36            1.5008    -1.7537   -10.0483 C.ar    
  37 H37           -0.4983    -0.3791     0.8948 H       
  38 H38           -0.5153    -0.3696    -0.8850 H       
  39 H39           -1.1523     3.1243     0.0245 H       
  40 H40            5.0505    -1.7047    -2.4140 H       
  41 H41            1.5244    -0.5073    -4.5471 H       
  42 H42            0.3556    -0.1181    -2.4404 H       
  43 H43            4.9968    -1.1568     2.4412 H       
  44 H44            3.4908    -0.6490     3.2428 H       
  45 H45            5.4628    -3.5066     2.0462 H       
  46 H46            5.0682    -5.8256     2.7740 H       
  47 H47            3.0670    -6.3766     4.0987 H       
  48 H48            1.4608    -4.6085     4.6964 H       
  49 H49            1.8598    -2.2880     3.9757 H       
  50 H50            2.4926    -0.8305    -6.0587 H       
  51 H51            4.9785    -0.7264    -7.3951 H       
  52 H52            4.4092    -2.4129    -7.4000 H       
  53 H53            2.0973     1.1192   -12.7344 H       
  54 H54            0.6447     2.0458   -12.2398 H       
  55 H55            3.7583     1.0008    -8.5833 H       
  56 H56            2.3952    -3.0401    -8.5943 H       
  57 H57            0.8689    -2.5286   -10.4564 H       
@<TRIPOS>BOND
   1    1    2 1
   2    1    3 2
   3    1    4 1
   4    2    5 1
   5    2   37 1
   6    2   38 1
   7    4   39 1
   8    5    6 am
   9    5   14 1
  10    6    7 am
  11    6   16 2
  12    7    8 am
  13    7   17 1
  14    8    9 1
  15    8   15 2
  16    9   10 ar
  17    9   14 ar
  18   10   11 ar
  19   10   40 1
  20   11   12 ar
  21   11   24 1
  22   12   13 ar
  23   12   41 1
  24   13   14 ar
  25   13   42 1
  26   17   18 1
  27   17   43 1
  28   17   44 1
  29   18   19 ar
  30   18   23 ar
  31   19   20 ar
  32   19   45 1
  33   20   21 ar
  34   20   46 1
  35   21   22 ar
  36   21   47 1
  37   22   23 ar
  38   22   48 1
  39   23   49 1
  40   24   25 am
  41   24   26 2
  42   25   27 1
  43   25   50 1
  44   27   34 1
  45   27   51 1
  46   27   52 1
  47   28   29 1
  48   28   32 1
  49   29   30 1
  50   29   53 1
  51   29   54 1
  52   30   31 1
  53   31   32 ar
  54   31   33 ar
  55   32   36 ar
  56   33   34 ar
  57   33   55 1
  58   34   35 ar
  59   35   36 ar
  60   35   56 1
  61   36   57 1

#	End of record

