#	Name: ASD03090548
#	Creating user name:	WinNT
#	Creation time:	15. 06. 2019 20:29

#	Modifying user name:	WinNT
#	Modification time:	15. 06. 2019 20:29

#	Program:	/corina/corina34_cracker 3.40 0067  02.08.2006

@<TRIPOS>MOLECULE
ASD03090548
  37   39    0    0    0
SMALL
NO_CHARGES


@<TRIPOS>ATOM
   1 C1            -0.0186     1.5024     0.0154 C.2     
   2 C2             0.0014    -0.0045     0.0123 C.3     
   3 O3             1.0237     2.1227     0.0093 O.2     
   4 N4            -1.1946     2.1607     0.0195 N.am    
   5 C5            -1.2153     3.5574     0.1329 C.ar    
   6 C6            -2.1839     4.2939    -0.5363 C.ar    
   7 C7            -2.2048     5.6696    -0.4248 C.ar    
   8 C8            -1.2567     6.3175     0.3575 C.ar    
   9 C9            -0.2879     5.5802     1.0273 C.ar    
  10 C10           -0.2708     4.2041     0.9191 C.ar    
  11 S11           -1.2824     8.0736     0.4997 S.3     
  12 C12            0.1193     8.4145     1.5995 C.3     
  13 F13            1.2978     7.9397     1.0139 F       
  14 F14            0.2246     9.7940     1.8069 F       
  15 F15           -0.0833     7.7727     2.8260 F       
  16 N16            5.3310    -1.8124     0.2442 N.pl3   
  17 C17            5.5003    -1.8690     1.6008 C.2     
  18 C18            4.3723    -1.4853     2.2192 C.2     
  19 C19            3.4012    -1.1561     1.1731 C.ar    
  20 C20            2.0789    -0.7077     1.1826 C.ar    
  21 C21            1.4287    -0.4880     0.0013 C.ar    
  22 C22            2.0721    -0.7070    -1.2093 C.ar    
  23 C23            3.3761    -1.1496    -1.2418 C.ar    
  24 C24            4.0575    -1.3799    -0.0508 C.ar    
  25 H25           -0.5013    -0.3764     0.9052 H       
  26 H26           -0.5139    -0.3729    -0.8747 H       
  27 H27           -2.0266     1.6678    -0.0562 H       
  28 H28           -2.9208     3.7903    -1.1443 H       
  29 H29           -2.9577     6.2424    -0.9458 H       
  30 H30            0.4492     6.0833     1.6355 H       
  31 H31            0.4798     3.6306     1.4427 H       
  32 H32            6.0085    -2.0392    -0.4119 H       
  33 H33            6.4071    -2.1771     2.1001 H       
  34 H34            4.2113    -1.4299     3.2857 H       
  35 H35            1.5716    -0.5360     2.1205 H       
  36 H36            1.5449    -0.5288    -2.1348 H       
  37 H37            3.8679    -1.3174    -2.1885 H       
@<TRIPOS>BOND
   1    1    2 1
   2    1    3 2
   3    1    4 am
   4    2   21 1
   5    2   25 1
   6    2   26 1
   7    4    5 1
   8    4   27 1
   9    5    6 ar
  10    5   10 ar
  11    6    7 ar
  12    6   28 1
  13    7    8 ar
  14    7   29 1
  15    8    9 ar
  16    8   11 1
  17    9   10 ar
  18    9   30 1
  19   10   31 1
  20   11   12 1
  21   12   13 1
  22   12   14 1
  23   12   15 1
  24   16   17 1
  25   16   24 1
  26   16   32 1
  27   17   18 2
  28   17   33 1
  29   18   19 1
  30   18   34 1
  31   19   20 ar
  32   19   24 ar
  33   20   21 ar
  34   20   35 1
  35   21   22 ar
  36   22   23 ar
  37   22   36 1
  38   23   24 ar
  39   23   37 1

#	End of record

