#	Name: ASD01912519
#	Creating user name:	WinNT
#	Creation time:	15. 06. 2019 19:59

#	Modifying user name:	WinNT
#	Modification time:	15. 06. 2019 19:59

#	Program:	/corina/corina34_cracker 3.40 0067  02.08.2006

@<TRIPOS>MOLECULE
ASD01912519
  31   33    0    0    0
SMALL
NO_CHARGES


@<TRIPOS>ATOM
   1 C1            -0.0169     1.3950     0.0097 C.ar    
   2 C2             0.0021    -0.0041     0.0020 C.ar    
   3 N3             1.1502    -0.6750    -0.0101 N.ar    
   4 C4             2.3173    -0.0600    -0.0148 C.ar    
   5 C5             2.3642     1.3374    -0.0128 C.ar    
   6 C6             1.1712     2.0760     0.0020 C.ar    
   7 C7             3.5756    -0.8861    -0.0152 C.3     
   8 C8             4.7568    -0.0941    -0.5689 C.3     
   9 C9             4.9067     1.2150     0.2171 C.3     
  10 C10            3.6592     2.0375    -0.0319 C.2     
  11 C11           -1.2350    -0.7253     0.0078 C.1     
  12 C12           -2.2493    -1.3165     0.0125 C.1     
  13 C13           -3.4864    -2.0377     0.0183 C.ar    
  14 N14           -3.4753    -3.3675     0.0110 N.ar    
  15 C15           -4.6960    -1.3394     0.0373 C.ar    
  16 C16           -5.8827    -2.0513     0.0426 C.ar    
  17 C17           -5.8241    -3.4377     0.0289 C.ar    
  18 C18           -4.5907    -4.0662     0.0160 C.ar    
  19 O19            3.7250     3.2306    -0.2400 O.2     
  20 H20           -0.9550     1.9301     0.0171 H       
  21 H21            1.1896     3.1558     0.0073 H       
  22 H22            3.8001    -1.1954     1.0057 H       
  23 H23            3.4206    -1.7728    -0.6299 H       
  24 H24            5.6681    -0.6839    -0.4700 H       
  25 H25            4.5820     0.1315    -1.6208 H       
  26 H26            5.0022     0.9994     1.2813 H       
  27 H27            5.7847     1.7584    -0.1320 H       
  28 H28           -4.7050    -0.2595     0.0480 H       
  29 H29           -6.8335    -1.5393     0.0575 H       
  30 H30           -6.7328    -4.0214     0.0329 H       
  31 H31           -4.5431    -5.1451     0.0053 H       
@<TRIPOS>BOND
   1    1    2 ar
   2    1    6 ar
   3    1   20 1
   4    2    3 ar
   5    2   11 1
   6    3    4 ar
   7    4    5 ar
   8    4    7 1
   9    5    6 ar
  10    5   10 1
  11    6   21 1
  12    7    8 1
  13    7   22 1
  14    7   23 1
  15    8    9 1
  16    8   24 1
  17    8   25 1
  18    9   10 1
  19    9   26 1
  20    9   27 1
  21   10   19 2
  22   11   12 3
  23   12   13 1
  24   13   14 ar
  25   13   15 ar
  26   14   18 ar
  27   15   16 ar
  28   15   28 1
  29   16   17 ar
  30   16   29 1
  31   17   18 ar
  32   17   30 1
  33   18   31 1

#	End of record

