#	Name: ASD00843608
#	Creating user name:	WinNT
#	Creation time:	15. 06. 2019 18:47

#	Modifying user name:	WinNT
#	Modification time:	15. 06. 2019 18:47

#	Program:	/corina/corina34_cracker 3.40 0067  02.08.2006

@<TRIPOS>MOLECULE
ASD00843608
  84   89    0    0    0
SMALL
NO_CHARGES


@<TRIPOS>ATOM
   1 F1             5.7384    -2.5321    -1.8761 F       
   2 N2             0.9964     1.0774    -0.1903 N.ar    
   3 C3             1.1498    -0.2012    -0.4915 C.ar    
   4 C4             0.9696    -1.1826     0.4750 C.ar    
   5 C5             0.6265    -0.8056     1.7615 C.ar    
   6 C6             0.4749     0.5466     2.0370 C.ar    
   7 C7             0.6696     1.4676     1.0272 C.ar    
   8 C8             1.1450    -2.6383     0.1271 C.3     
   9 C9             0.7578    -3.5142     1.2995 C.2     
  10 C10            0.3147    -2.9968    -1.1070 C.3     
  11 C11           -1.1243    -2.6157    -0.8724 C.2     
  12 N12           -2.0645    -2.9414    -1.7814 N.am    
  13 O13           -1.4363    -2.0158     0.1345 O.2     
  14 C14           -3.4537    -2.4833    -1.6280 C.3     
  15 C15           -3.8955    -1.8214    -2.9375 C.3     
  16 N16           -3.6672    -2.7497    -4.0530 N.3     
  17 C17           -2.2383    -3.0521    -4.2106 C.3     
  18 C18           -1.7273    -3.7593    -2.9564 C.3     
  19 C19           -4.2345    -2.2224    -5.3012 C.3     
  20 C20           -3.8706    -3.1526    -6.4617 C.3     
  21 C21           -4.5150    -2.6313    -7.7482 C.3     
  22 N22           -5.9728    -2.5768    -7.5797 N.3     
  23 C23           -6.3485    -1.6531    -6.5017 C.3     
  24 C24           -5.7588    -2.1452    -5.1780 C.3     
  25 H25           -6.4277    -2.3268    -8.4450 H       
  26 O26           -0.3356    -3.5784     1.8206 O.2     
  27 N27            1.8527    -4.2076     1.6542 N.am    
  28 C28            2.6048    -2.9556    -0.1029 C.ar    
  29 C29            2.9539    -3.9032     0.8512 C.ar    
  30 C30            3.5297    -2.4961    -1.0134 C.ar    
  31 C31            4.8277    -2.9799    -0.9843 C.ar    
  32 C32            5.1885    -3.9259    -0.0367 C.ar    
  33 C33            4.2599    -4.3868     0.8767 C.ar    
  34 F34            6.4536    -4.3991    -0.0066 F       
  35 C35            1.4698    -6.8713     2.2306 C.ar    
  36 C36            2.4616    -7.7027     1.7439 C.ar    
  37 C37            0.1479    -7.2753     2.1976 C.ar    
  38 C38           -0.1851    -8.5113     1.6781 C.ar    
  39 C39            0.8082    -9.3474     1.1891 C.ar    
  40 C40            2.1337    -8.9394     1.2229 C.ar    
  41 O41            0.4832   -10.5639     0.6779 O.3     
  42 H42            3.4934    -7.3848     1.7707 H       
  43 C43            1.5575   -11.3716     0.1926 C.3     
  44 O44            1.4859    -0.5578    -1.7567 O.3     
  45 C45            1.6096     0.4941    -2.7161 C.3     
  46 C46            2.0922    -0.0844    -4.0477 C.3     
  47 F47            3.2934    -0.7734    -3.8488 F       
  48 F48            1.1278    -0.9641    -4.5509 F       
  49 S49            1.8919    -5.2973     2.9005 S.o2    
  50 O50            3.2490    -5.3873     3.3123 O.2     
  51 O51            0.8350    -4.9390     3.7801 O.2     
  52 H52            0.4795    -1.5464     2.5335 H       
  53 H53            0.2073     0.8746     3.0306 H       
  54 H54            0.5533     2.5207     1.2364 H       
  55 H55            0.6975    -2.4556    -1.9723 H       
  56 H56            0.3812    -4.0692    -1.2907 H       
  57 H57           -4.0985    -3.3353    -1.4126 H       
  58 H58           -3.5131    -1.7605    -0.8142 H       
  59 H59           -4.9557    -1.5747    -2.8808 H       
  60 H60           -3.3179    -0.9110    -3.0979 H       
  61 H61           -2.0967    -3.6979    -5.0772 H       
  62 H62           -1.6838    -2.1246    -4.3532 H       
  63 H63           -0.6462    -3.8828    -3.0205 H       
  64 H64           -2.2053    -4.7346    -2.8656 H       
  65 H65           -3.8327    -1.2273    -5.4922 H       
  66 H66           -2.7876    -3.1782    -6.5817 H       
  67 H67           -4.2380    -4.1572    -6.2519 H       
  68 H68           -4.1368    -1.6323    -7.9649 H       
  69 H69           -4.2696    -3.2994    -8.5738 H       
  70 H70           -5.9617    -0.6587    -6.7242 H       
  71 H71           -7.4347    -1.6107    -6.4219 H       
  72 H72           -6.1558    -3.1339    -4.9479 H       
  73 H73           -6.0248    -1.4511    -4.3807 H       
  74 H74            3.2438    -1.7595    -1.7497 H       
  75 H75            4.5475    -5.1234     1.6124 H       
  76 H76           -0.6250    -6.6243     2.5788 H       
  77 H77           -1.2177    -8.8266     1.6530 H       
  78 H78            2.9088    -9.5886     0.8432 H       
  79 H79            2.2567   -11.5723     1.0043 H       
  80 H80            1.1612   -12.3135    -0.1868 H       
  81 H81            2.0740   -10.8452    -0.6100 H       
  82 H82            0.6404     0.9724    -2.8577 H       
  83 H83            2.3291     1.2301    -2.3575 H       
  84 H84            2.2516     0.7258    -4.7593 H       
@<TRIPOS>BOND
   1    1   31 1
   2    2    3 ar
   3    2    7 ar
   4    3    4 ar
   5    3   44 1
   6    4    5 ar
   7    4    8 1
   8    5    6 ar
   9    5   52 1
  10    6    7 ar
  11    6   53 1
  12    7   54 1
  13    8    9 1
  14    8   10 1
  15    8   28 1
  16    9   26 2
  17    9   27 am
  18   10   11 1
  19   10   55 1
  20   10   56 1
  21   11   12 am
  22   11   13 2
  23   12   14 1
  24   12   18 1
  25   14   15 1
  26   14   57 1
  27   14   58 1
  28   15   16 1
  29   15   59 1
  30   15   60 1
  31   16   17 1
  32   16   19 1
  33   17   18 1
  34   17   61 1
  35   17   62 1
  36   18   63 1
  37   18   64 1
  38   19   20 1
  39   19   24 1
  40   19   65 1
  41   20   21 1
  42   20   66 1
  43   20   67 1
  44   21   22 1
  45   21   68 1
  46   21   69 1
  47   22   23 1
  48   22   25 1
  49   23   24 1
  50   23   70 1
  51   23   71 1
  52   24   72 1
  53   24   73 1
  54   27   49 am
  55   27   29 1
  56   28   29 ar
  57   28   30 ar
  58   29   33 ar
  59   30   31 ar
  60   30   74 1
  61   31   32 ar
  62   32   33 ar
  63   32   34 1
  64   33   75 1
  65   35   36 ar
  66   35   37 ar
  67   35   49 1
  68   36   42 1
  69   36   40 ar
  70   37   38 ar
  71   37   76 1
  72   38   39 ar
  73   38   77 1
  74   39   40 ar
  75   39   41 1
  76   40   78 1
  77   41   43 1
  78   43   79 1
  79   43   80 1
  80   43   81 1
  81   44   45 1
  82   45   46 1
  83   45   82 1
  84   45   83 1
  85   46   47 1
  86   46   48 1
  87   46   84 1
  88   49   50 2
  89   49   51 2

#	End of record

