#	Name: ASD01880269
#	Creating user name:	WinNT
#	Creation time:	15. 06. 2019 19:40

#	Modifying user name:	WinNT
#	Modification time:	15. 06. 2019 19:40

#	Program:	/corina/corina34_cracker 3.40 0067  02.08.2006

@<TRIPOS>MOLECULE
ASD01880269
  43   45    0    0    0
SMALL
NO_CHARGES


@<TRIPOS>ATOM
   1 C1            -0.0180     1.4798     0.0102 C.ar    
   2 C2             0.0021    -0.0041     0.0020 C.2     
   3 C3            -0.4771    -0.7020     1.0725 C.2     
   4 N4            -0.4626    -2.0582     1.0736 N.am    
   5 C5             0.0235    -2.7446     0.0227 C.2     
   6 C6             0.5262    -2.0618    -1.0989 C.2     
   7 C7             0.5116    -0.7001    -1.1154 C.2     
   8 O8             0.0284    -3.9649     0.0438 O.2     
   9 C9            -0.9824    -2.7857     2.2341 C.3     
  10 C10           -2.4763    -3.0535     2.0409 C.3     
  11 O11           -2.6629    -3.9320     0.9294 O.3     
  12 C12           -3.9416    -4.2730     0.6203 C.ar    
  13 C13           -4.1956    -5.1223    -0.4468 C.ar    
  14 C14           -5.4964    -5.4673    -0.7590 C.ar    
  15 C15           -6.5446    -4.9669    -0.0090 C.ar    
  16 C16           -6.2941    -4.1199     1.0547 C.ar    
  17 C17           -4.9947    -3.7768     1.3748 C.ar    
  18 C18            1.1784     2.1943     0.0026 C.ar    
  19 C19            1.1565     3.5734     0.0097 C.ar    
  20 C20           -0.0556     4.2496     0.0249 C.ar    
  21 C21           -1.2490     3.5407     0.0330 C.ar    
  22 C22           -1.2335     2.1615     0.0196 C.ar    
  23 O23           -0.0740     5.6085     0.0324 O.3     
  24 C24           -1.3559     6.2399     0.0480 C.3     
  25 H25           -0.8708    -0.1700     1.9259 H       
  26 H26            0.9165    -2.6125    -1.9419 H       
  27 H27            0.8933    -0.1595    -1.9689 H       
  28 H28           -0.4535    -3.7334     2.3356 H       
  29 H29           -0.8337    -2.1885     3.1337 H       
  30 H30           -2.8821    -3.5152     2.9410 H       
  31 H31           -2.9925    -2.1125     1.8509 H       
  32 H32           -3.3772    -5.5131    -1.0332 H       
  33 H33           -5.6947    -6.1282    -1.5899 H       
  34 H34           -7.5608    -5.2378    -0.2547 H       
  35 H35           -7.1146    -3.7297     1.6386 H       
  36 H36           -4.7995    -3.1151     2.2058 H       
  37 H37            2.1218     1.6687    -0.0085 H       
  38 H38            2.0834     4.1277     0.0039 H       
  39 H39           -2.1906     4.0695     0.0451 H       
  40 H40           -2.1623     1.6104     0.0259 H       
  41 H41           -1.2278     7.3223     0.0525 H       
  42 H42           -1.9174     5.9442    -0.8383 H       
  43 H43           -1.9004     5.9347     0.9416 H       
@<TRIPOS>BOND
   1    1    2 1
   2    1   18 ar
   3    1   22 ar
   4    2    3 2
   5    2    7 1
   6    3    4 1
   7    3   25 1
   8    4    5 am
   9    4    9 1
  10    5    6 1
  11    5    8 2
  12    6    7 2
  13    6   26 1
  14    7   27 1
  15    9   10 1
  16    9   28 1
  17    9   29 1
  18   10   11 1
  19   10   30 1
  20   10   31 1
  21   11   12 1
  22   12   13 ar
  23   12   17 ar
  24   13   14 ar
  25   13   32 1
  26   14   15 ar
  27   14   33 1
  28   15   16 ar
  29   15   34 1
  30   16   17 ar
  31   16   35 1
  32   17   36 1
  33   18   19 ar
  34   18   37 1
  35   19   20 ar
  36   19   38 1
  37   20   21 ar
  38   20   23 1
  39   21   22 ar
  40   21   39 1
  41   22   40 1
  42   23   24 1
  43   24   41 1
  44   24   42 1
  45   24   43 1

#	End of record

