#	Name: ASD08830101
#	Creating user name:	WinNT
#	Creation time:	15. 06. 2019 21:19

#	Modifying user name:	WinNT
#	Modification time:	15. 06. 2019 21:19

#	Program:	/corina/corina34_cracker 3.40 0067  02.08.2006

@<TRIPOS>MOLECULE
ASD08830101
  36   37    0    0    0
SMALL
NO_CHARGES


@<TRIPOS>ATOM
   1 C1            -0.0564     1.4895    -0.2353 C.ar    
   2 C2            -0.0779     0.0424    -0.5022 C.2     
   3 C3             1.1897    -0.6695    -0.8992 C.3     
   4 C4             0.8939    -2.1548    -1.1163 C.3     
   5 N5             2.1295    -2.8487    -1.5032 N.3     
   6 O6            -1.1155    -0.5771    -0.4028 O.2     
   7 C7             1.1069     2.2298    -0.4674 C.ar    
   8 C8             1.1189     3.5855    -0.2152 C.ar    
   9 C9            -0.0162     4.2134     0.2667 C.ar    
  10 C10           -1.1716     3.4874     0.4995 C.ar    
  11 C11           -1.2014     2.1325     0.2465 C.ar    
  12 C12            1.9412    -4.3067    -1.4901 C.3     
  13 C13            3.2314    -4.9867    -1.9558 C.3     
  14 O14            4.3124    -4.5728    -1.1159 O.3     
  15 C15            4.5244    -3.1584    -1.1054 C.3     
  16 C16            3.2473    -2.4599    -0.6311 C.3     
  17 C17           -2.4602     1.3440     0.5006 C.3     
  18 H18            1.5753    -0.2371    -1.8224 H       
  19 H19            1.9316    -0.5586    -0.1084 H       
  20 H20            0.5082    -2.5872    -0.1930 H       
  21 H21            0.1520    -2.2657    -1.9071 H       
  22 H22            1.9938     1.7410    -0.8429 H       
  23 H23            2.0166     4.1587    -0.3940 H       
  24 H24           -0.0005     5.2754     0.4626 H       
  25 H25           -2.0534     3.9845     0.8761 H       
  26 H26            1.7022    -4.6337    -0.4781 H       
  27 H27            1.1257    -4.5745    -2.1619 H       
  28 H28            3.1156    -6.0687    -1.8932 H       
  29 H29            3.4415    -4.7015    -2.9866 H       
  30 H30            5.3437    -2.9182    -0.4279 H       
  31 H31            4.7721    -2.8201    -2.1115 H       
  32 H32            3.3852    -1.3796    -0.6759 H       
  33 H33            3.0292    -2.7574     0.3946 H       
  34 H34           -3.0165     1.2375    -0.4308 H       
  35 H35           -2.1998     0.3571     0.8831 H       
  36 H36           -3.0750     1.8670     1.2331 H       
@<TRIPOS>BOND
   1    1    2 1
   2    1    7 ar
   3    1   11 ar
   4    2    3 1
   5    2    6 2
   6    3    4 1
   7    3   18 1
   8    3   19 1
   9    4    5 1
  10    4   20 1
  11    4   21 1
  12    5   12 1
  13    5   16 1
  14    7    8 ar
  15    7   22 1
  16    8    9 ar
  17    8   23 1
  18    9   10 ar
  19    9   24 1
  20   10   11 ar
  21   10   25 1
  22   11   17 1
  23   12   13 1
  24   12   26 1
  25   12   27 1
  26   13   14 1
  27   13   28 1
  28   13   29 1
  29   14   15 1
  30   15   16 1
  31   15   30 1
  32   15   31 1
  33   16   32 1
  34   16   33 1
  35   17   34 1
  36   17   35 1
  37   17   36 1

#	End of record

