#	Name: ASD08150603
#	Creating user name:	WinNT
#	Creation time:	15. 06. 2019 21:16

#	Modifying user name:	WinNT
#	Modification time:	15. 06. 2019 21:16

#	Program:	/corina/corina34_cracker 3.40 0067  02.08.2006

@<TRIPOS>MOLECULE
ASD08150603
  66   71    0    0    0
SMALL
NO_CHARGES


@<TRIPOS>ATOM
   1 N1             1.0801    11.9362    -5.4542 N.am    
   2 C2             0.9503    11.7591    -6.7833 C.2     
   3 C3             1.8100    12.4143    -7.6881 C.2     
   4 C4             2.7867    13.2373    -7.2283 C.2     
   5 C5             2.9261    13.4259    -5.8306 C.ar    
   6 C6             3.9219    14.2689    -5.3011 C.ar    
   7 N7             4.0482    14.4410    -4.0112 N.ar    
   8 C8             3.2462    13.8327    -3.1241 C.ar    
   9 C9             2.2162    12.9669    -3.5673 C.ar    
  10 C10            2.0533    12.7588    -4.9571 C.ar    
  11 C11            1.3864    12.3371    -2.6346 C.ar    
  12 C12            1.5816    12.5677    -1.2825 C.ar    
  13 C13            2.6029    13.4257    -0.8515 C.ar    
  14 C14            3.4178    14.0459    -1.7465 C.ar    
  15 O15            0.0776    11.0218    -7.2094 O.2     
  16 C16            0.7055    11.9039    -0.2864 C.ar    
  17 C17            0.2092    11.2781    -4.5758 C.ar    
  18 C18           -1.1038    11.7123    -4.4446 C.ar    
  19 C19           -1.9619    11.0639    -3.5798 C.ar    
  20 C20           -1.5124     9.9769    -2.8403 C.ar    
  21 C21           -0.1995     9.5429    -2.9716 C.ar    
  22 C22            0.6571    10.1884    -3.8407 C.ar    
  23 N23           -2.3814     9.3203    -1.9639 N.3     
  24 C24           -2.8015     8.0231    -2.5122 C.3     
  25 C25           -3.6856     7.3030    -1.4913 C.3     
  26 C26            1.2588    11.1575     0.7595 C.ar    
  27 C27           -3.5469    10.1589    -1.6511 C.3     
  28 C28           -4.4310     9.4388    -0.6302 C.3     
  29 N29           -4.8511     8.1417    -1.1785 N.3     
  30 C30           -5.7642     7.4517    -0.2575 C.3     
  31 C31            0.4023    10.5580     1.6631 C.ar    
  32 C32           -0.9695    10.7147     1.5051 C.ar    
  33 N33           -1.4612    11.4271     0.5044 N.ar    
  34 C34           -0.6793    12.0197    -0.3756 C.ar    
  35 O35           -1.8160    10.1289     2.3886 O.3     
  36 C36           -3.2089    10.4092     2.2360 C.3     
  37 C37            0.2882     8.3638    -2.1697 C.3     
  38 F38            1.6277     8.5613    -1.8177 F       
  39 F39           -0.4848     8.2365    -1.0106 F       
  40 F40            0.1743     7.1992    -2.9364 F       
  41 H41            1.6915    12.2607    -8.7505 H       
  42 H42            3.4482    13.7409    -7.9176 H       
  43 H43            4.5939    14.7824    -5.9727 H       
  44 H44            0.5990    11.6762    -2.9657 H       
  45 H45            2.7444    13.5968     0.2055 H       
  46 H46            4.1999    14.7035    -1.3968 H       
  47 H47           -1.4530    12.5575    -5.0191 H       
  48 H48           -2.9826    11.4017    -3.4776 H       
  49 H49            1.6767     9.8482    -3.9462 H       
  50 H50           -3.3640     8.1822    -3.4322 H       
  51 H51           -1.9216     7.4156    -2.7239 H       
  52 H52           -4.0221     6.3534    -1.9073 H       
  53 H53           -3.1147     7.1197    -0.5810 H       
  54 H54            2.3291    11.0520     0.8580 H       
  55 H55           -3.2104    11.1086    -1.2351 H       
  56 H56           -4.1178    10.3423    -2.5614 H       
  57 H57           -3.8686     9.2798     0.2898 H       
  58 H58           -5.3109    10.0463    -0.4185 H       
  59 H59           -6.6499     8.0662    -0.0958 H       
  60 H60           -6.0596     6.4948    -0.6878 H       
  61 H61           -5.2608     7.2823     0.6943 H       
  62 H62            0.7945     9.9741     2.4827 H       
  63 H63           -1.1172    12.5930    -1.1792 H       
  64 H64           -3.5109    10.2014     1.2094 H       
  65 H65           -3.7827     9.7813     2.9176 H       
  66 H66           -3.3956    11.4585     2.4643 H       
@<TRIPOS>BOND
   1    1    2 am
   2    1   10 1
   3    1   17 1
   4    2    3 1
   5    2   15 2
   6    3    4 2
   7    3   41 1
   8    4    5 1
   9    4   42 1
  10    5    6 ar
  11    5   10 ar
  12    6    7 ar
  13    6   43 1
  14    7    8 ar
  15    8    9 ar
  16    8   14 ar
  17    9   10 ar
  18    9   11 ar
  19   11   12 ar
  20   11   44 1
  21   12   13 ar
  22   12   16 1
  23   13   14 ar
  24   13   45 1
  25   14   46 1
  26   16   26 ar
  27   16   34 ar
  28   17   18 ar
  29   17   22 ar
  30   18   19 ar
  31   18   47 1
  32   19   20 ar
  33   19   48 1
  34   20   21 ar
  35   20   23 1
  36   21   22 ar
  37   21   37 1
  38   22   49 1
  39   23   24 1
  40   23   27 1
  41   24   25 1
  42   24   50 1
  43   24   51 1
  44   25   29 1
  45   25   52 1
  46   25   53 1
  47   26   31 ar
  48   26   54 1
  49   27   28 1
  50   27   55 1
  51   27   56 1
  52   28   29 1
  53   28   57 1
  54   28   58 1
  55   29   30 1
  56   30   59 1
  57   30   60 1
  58   30   61 1
  59   31   32 ar
  60   31   62 1
  61   32   33 ar
  62   32   35 1
  63   33   34 ar
  64   34   63 1
  65   35   36 1
  66   36   64 1
  67   36   65 1
  68   36   66 1
  69   37   38 1
  70   37   39 1
  71   37   40 1

#	End of record

