#	Name: ASD00842715
#	Creating user name:	WinNT
#	Creation time:	15. 06. 2019 18:45

#	Modifying user name:	WinNT
#	Modification time:	15. 06. 2019 18:45

#	Program:	/corina/corina34_cracker 3.40 0067  02.08.2006

@<TRIPOS>MOLECULE
ASD00842715
  86   91    0    0    0
SMALL
NO_CHARGES


@<TRIPOS>ATOM
   1 C1            -0.0167     1.3829     0.0096 C.ar    
   2 C2             0.0021    -0.0041     0.0020 C.ar    
   3 C3             1.2143    -0.6791    -0.0132 C.ar    
   4 C4             2.3989     0.0312    -0.0207 C.ar    
   5 C5             2.3774     1.4139    -0.0126 C.ar    
   6 C6             1.1710     2.0888     0.0021 C.ar    
   7 C7             1.2384    -2.1858    -0.0210 C.3     
   8 C8             0.4953    -2.7219    -1.2261 C.2     
   9 O9             2.6067    -2.6715    -0.0097 O.3     
  10 C10            3.3980    -2.2932    -1.0312 C.2     
  11 N11            4.6790    -2.7090    -1.0811 N.am    
  12 O12            2.9572    -1.5768    -1.9082 O.2     
  13 C13            5.5547    -2.3046    -2.1894 C.3     
  14 C14            6.1662    -3.5606    -2.8182 C.3     
  15 C15            6.8654    -4.3813    -1.7320 C.3     
  16 C16            5.8417    -4.8168    -0.6810 C.3     
  17 C17            5.2281    -3.5704    -0.0251 C.3     
  18 N18            7.4814    -5.5698    -2.3370 N.3     
  19 C19            8.2628    -6.3209    -1.3445 C.3     
  20 C20            8.8209    -7.5900    -1.9929 C.3     
  21 N21            9.6542    -7.2220    -3.1461 N.3     
  22 C22            8.8728    -6.4709    -4.1385 C.3     
  23 C23            8.3148    -5.2018    -3.4901 C.3     
  24 C24           10.2703    -8.4104    -3.7511 C.3     
  25 O25            0.7741    -2.5257    -2.3901 O.2     
  26 N26           -0.5308    -3.4561    -0.7641 N.am    
  27 C27            0.4693    -2.7338     1.1591 C.ar    
  28 C28           -0.5745    -3.4835     0.6314 C.ar    
  29 C29            0.6334    -2.6119     2.5207 C.ar    
  30 C30           -1.2952    -3.9938     2.8681 C.ar    
  31 C31           -1.4597    -4.1156     1.5017 C.ar    
  32 F32           -2.1570    -4.6096     3.7067 F       
  33 C33           -0.9807    -5.8529    -2.0396 C.ar    
  34 C34           -1.3049    -6.8934    -1.1887 C.ar    
  35 C35           -0.1615    -6.0785    -3.1305 C.ar    
  36 C36            0.3351    -7.3446    -3.3728 C.ar    
  37 C37            0.0113    -8.3903    -2.5205 C.ar    
  38 C38           -0.8105    -8.1613    -1.4264 C.ar    
  39 O39            0.4982    -9.6368    -2.7569 O.3     
  40 H40           -1.9449    -6.7147    -0.3373 H       
  41 C41            0.1233   -10.6648    -1.8379 C.3     
  42 C42           -0.2497    -3.2420     3.3826 C.ar    
  43 F43           -0.0925    -3.1248     4.7193 F       
  44 O44           -1.1648    -0.7006     0.0099 O.3     
  45 C45           -3.5740    -0.8895     0.0328 C.3     
  46 C46           -2.3744     0.0601     0.0260 C.3     
  47 S47           -1.6183    -4.2384    -1.7375 S.o2    
  48 O48           -2.7976    -4.4111    -0.9637 O.2     
  49 O49           -1.6002    -3.5597    -2.9858 O.2     
  50 H50           -0.9590     1.9106     0.0170 H       
  51 H51            3.3426    -0.4937    -0.0325 H       
  52 H52            3.3047     1.9675    -0.0178 H       
  53 H53            1.1569     3.1687     0.0084 H       
  54 H54            4.9723    -1.7677    -2.9381 H       
  55 H55            6.3493    -1.6614    -1.8113 H       
  56 H56            5.3783    -4.1589    -3.2757 H       
  57 H57            6.8915    -3.2706    -3.5785 H       
  58 H58            7.6366    -3.7742    -1.2580 H       
  59 H59            5.0568    -5.4032    -1.1587 H       
  60 H60            6.3359    -5.4208     0.0799 H       
  61 H61            5.9975    -3.0329     0.5291 H       
  62 H62            4.4288    -3.8702     0.6527 H       
  63 H63            9.0863    -5.7030    -0.9868 H       
  64 H64            7.6210    -6.5928    -0.5065 H       
  65 H65            9.4248    -8.1340    -1.2667 H       
  66 H66            7.9967    -8.2206    -2.3263 H       
  67 H67            9.5147    -6.1990    -4.9766 H       
  68 H68            8.0493    -7.0888    -4.4963 H       
  69 H69            7.7108    -4.6577    -4.2164 H       
  70 H70            9.1389    -4.5711    -3.1567 H       
  71 H71            9.4897    -9.0929    -4.0875 H       
  72 H72           10.8814    -8.1096    -4.6020 H       
  73 H73           10.8967    -8.9107    -3.0126 H       
  74 H74            1.4498    -2.0260     2.9165 H       
  75 H75           -2.2762    -4.7023     1.1075 H       
  76 H76            0.0900    -5.2642    -3.7939 H       
  77 H77            0.9745    -7.5203    -4.2251 H       
  78 H78           -1.0643    -8.9737    -0.7616 H       
  79 H79            0.5786   -11.6075    -2.1417 H       
  80 H80            0.4669   -10.4011    -0.8377 H       
  81 H81           -0.9616   -10.7702    -1.8333 H       
  82 H82           -4.4966    -0.3093     0.0451 H       
  83 H83           -3.5489    -1.5131    -0.8609 H       
  84 H84           -3.5312    -1.5227     0.9190 H       
  85 H85           -2.3995     0.6837     0.9196 H       
  86 H86           -2.4172     0.6932    -0.8603 H       
@<TRIPOS>BOND
   1    1    2 ar
   2    1    6 ar
   3    1   50 1
   4    2    3 ar
   5    2   44 1
   6    3    4 ar
   7    3    7 1
   8    4    5 ar
   9    4   51 1
  10    5    6 ar
  11    5   52 1
  12    6   53 1
  13    7    8 1
  14    7    9 1
  15    7   27 1
  16    8   25 2
  17    8   26 am
  18    9   10 1
  19   10   11 am
  20   10   12 2
  21   11   13 1
  22   11   17 1
  23   13   14 1
  24   13   54 1
  25   13   55 1
  26   14   15 1
  27   14   56 1
  28   14   57 1
  29   15   16 1
  30   15   18 1
  31   15   58 1
  32   16   17 1
  33   16   59 1
  34   16   60 1
  35   17   61 1
  36   17   62 1
  37   18   19 1
  38   18   23 1
  39   19   20 1
  40   19   63 1
  41   19   64 1
  42   20   21 1
  43   20   65 1
  44   20   66 1
  45   21   22 1
  46   21   24 1
  47   22   23 1
  48   22   67 1
  49   22   68 1
  50   23   69 1
  51   23   70 1
  52   24   71 1
  53   24   72 1
  54   24   73 1
  55   26   47 am
  56   26   28 1
  57   27   28 ar
  58   27   29 ar
  59   28   31 ar
  60   29   42 ar
  61   29   74 1
  62   30   31 ar
  63   30   32 1
  64   30   42 ar
  65   31   75 1
  66   33   34 ar
  67   33   35 ar
  68   33   47 1
  69   34   40 1
  70   34   38 ar
  71   35   36 ar
  72   35   76 1
  73   36   37 ar
  74   36   77 1
  75   37   38 ar
  76   37   39 1
  77   38   78 1
  78   39   41 1
  79   41   79 1
  80   41   80 1
  81   41   81 1
  82   42   43 1
  83   44   46 1
  84   45   46 1
  85   45   82 1
  86   45   83 1
  87   45   84 1
  88   46   85 1
  89   46   86 1
  90   47   48 2
  91   47   49 2

#	End of record

