#	Name: ASD01913930
#	Creating user name:	WinNT
#	Creation time:	15. 06. 2019 20:02

#	Modifying user name:	WinNT
#	Modification time:	15. 06. 2019 20:02

#	Program:	/corina/corina34_cracker 3.40 0067  02.08.2006

@<TRIPOS>MOLECULE
ASD01913930
  41   43    0    0    0
SMALL
NO_CHARGES


@<TRIPOS>ATOM
   1 C1            -0.0159     1.4279    -0.0019 C.ar    
   2 C2             0.0034    -0.0040    -0.0097 C.1     
   3 C3             0.0193    -1.1779    -0.0160 C.1     
   4 C4             0.0386    -2.6097    -0.0238 C.ar    
   5 N5            -1.0846    -3.2916    -0.2495 N.ar    
   6 C6             0.1296    -5.2904    -0.0281 C.ar    
   7 N7             1.2509    -4.6144     0.1913 N.ar    
   8 C8             1.2363    -3.2951     0.1995 C.ar    
   9 C9            -1.0641    -4.6095    -0.2566 C.ar    
  10 C10            1.1339     3.5236     0.2404 C.ar    
  11 C11           -1.2121     2.1152    -0.2250 C.ar    
  12 C12           -0.0532     4.1973     0.0130 C.ar    
  13 N13            0.1479    -6.6833    -0.0362 N.am    
  14 C14            1.1603     2.1447     0.2345 C.ar    
  15 C15           -1.2229     3.4943    -0.2161 C.ar    
  16 C16           -0.9334    -7.4738    -0.0306 C.2     
  17 N17           -0.6493    -8.7827    -0.0407 N.am    
  18 C18            0.8104    -8.9601    -0.0554 C.3     
  19 C19            1.3574    -7.5194    -0.0587 C.3     
  20 C20            1.2726    -9.7128     1.1939 C.3     
  21 C21            1.2490    -9.6984    -1.3217 C.3     
  22 C22           -1.6360    -9.8656    -0.0377 C.3     
  23 O23           -2.0700    -7.0422    -0.0171 O.2     
  24 H24            2.1485    -2.7454     0.3782 H       
  25 H25           -1.9738    -5.1621    -0.4394 H       
  26 H26            2.0429     4.0789     0.4184 H       
  27 H27           -2.1256     1.5678    -0.4042 H       
  28 H28           -0.0679     5.2772     0.0192 H       
  29 H29            2.0874     1.6202     0.4124 H       
  30 H30           -2.1457     4.0268    -0.3928 H       
  31 H31            1.9410    -7.3338    -0.9604 H       
  32 H32            1.9588    -7.3365     0.8318 H       
  33 H33            0.8176   -10.7031     1.2106 H       
  34 H34            2.3579    -9.8118     1.1778 H       
  35 H35            0.9714    -9.1596     2.0835 H       
  36 H36            0.9313    -9.1351    -2.1991 H       
  37 H37            2.3345    -9.7975    -1.3270 H       
  38 H38            0.7937   -10.6886    -1.3411 H       
  39 H39           -2.6403    -9.4420    -0.0263 H       
  40 H40           -1.5090   -10.4754    -0.9322 H       
  41 H41           -1.4929   -10.4851     0.8477 H       
@<TRIPOS>BOND
   1    1    2 1
   2    1   14 ar
   3    1   11 ar
   4    2    3 3
   5    3    4 1
   6    4    5 ar
   7    4    8 ar
   8    5    9 ar
   9    6    7 ar
  10    6   13 1
  11    6    9 ar
  12    7    8 ar
  13    8   24 1
  14    9   25 1
  15   10   12 ar
  16   10   14 ar
  17   10   26 1
  18   11   15 ar
  19   11   27 1
  20   12   15 ar
  21   12   28 1
  22   13   16 am
  23   13   19 1
  24   14   29 1
  25   15   30 1
  26   16   17 am
  27   16   23 2
  28   17   18 1
  29   17   22 1
  30   18   19 1
  31   18   20 1
  32   18   21 1
  33   19   31 1
  34   19   32 1
  35   20   33 1
  36   20   34 1
  37   20   35 1
  38   21   36 1
  39   21   37 1
  40   21   38 1
  41   22   39 1
  42   22   40 1
  43   22   41 1

#	End of record

