#	Name: ASD09740332
#	Creating user name:	WinNT
#	Creation time:	15. 06. 2019 21:23

#	Modifying user name:	WinNT
#	Modification time:	15. 06. 2019 21:23

#	Program:	/corina/corina34_cracker 3.40 0067  02.08.2006

@<TRIPOS>MOLECULE
ASD09740332
  45   47    0    0    0
SMALL
NO_CHARGES


@<TRIPOS>ATOM
   1 N1            -0.0144     1.2085     0.0087 N.2     
   2 O2             0.0021    -0.0041     0.0020 O.3     
   3 C3             1.2065     1.6802    -0.0004 C.2     
   4 N4             2.0464     0.6239    -0.0141 N.2     
   5 C5             1.2701    -0.4442    -0.0125 C.2     
   6 C6             1.7123    -1.8533    -0.0242 C.ar    
   7 C7             1.5954     3.1120     0.0035 C.ar    
   8 C8             0.7684    -2.8832    -0.0208 C.ar    
   9 C9             1.1871    -4.1998    -0.0323 C.ar    
  10 C10            2.5487    -4.4980    -0.0474 C.ar    
  11 C11            3.4858    -3.4750    -0.0504 C.ar    
  12 C12            3.0744    -2.1588    -0.0447 C.ar    
  13 C13            0.6142     4.1019     0.0187 C.ar    
  14 C14            0.9785     5.4317     0.0224 C.ar    
  15 C15            2.3214     5.7851     0.0109 C.ar    
  16 C16            3.3009     4.8010    -0.0047 C.ar    
  17 C17            2.9426     3.4696    -0.0022 C.ar    
  18 O18            2.9589    -5.7932    -0.0587 O.3     
  19 C19            4.6354    -7.5336    -0.0851 C.3     
  20 C20            4.3685    -6.0271    -0.0739 C.3     
  21 O21            0.2708    -5.2048    -0.0285 O.3     
  22 C22           -1.1071    -4.8264    -0.0124 C.3     
  23 C23           -1.9808    -6.0824    -0.0104 C.3     
  24 O24            2.6774     7.0959     0.0145 O.3     
  25 C25            4.0761     7.3884     0.0021 C.3     
  26 F26            4.6560     6.8445    -1.1490 F       
  27 F27            4.2627     8.7748     0.0078 F       
  28 F28            4.6789     6.8320     1.1354 F       
  29 H29           -0.2862    -2.6508    -0.0087 H       
  30 H30            4.5399    -3.7100    -0.0614 H       
  31 H31            3.8061    -1.3644    -0.0474 H       
  32 H32           -0.4303     3.8276     0.0273 H       
  33 H33            0.2188     6.1992     0.0338 H       
  34 H34            4.3446     5.0788    -0.0144 H       
  35 H35            3.7048     2.7047    -0.0140 H       
  36 H36            5.7106    -7.7120    -0.0967 H       
  37 H37            4.2016    -7.9860     0.8067 H       
  38 H38            4.1841    -7.9760    -0.9732 H       
  39 H39            4.8023    -5.5747    -0.9657 H       
  40 H40            4.8198    -5.5847     0.8142 H       
  41 H41           -1.3123    -4.2397     0.8830 H       
  42 H42           -1.3304    -4.2298    -0.8968 H       
  43 H43           -1.7756    -6.6692    -0.9057 H       
  44 H44           -1.7575    -6.6790     0.8741 H       
  45 H45           -3.0319    -5.7938     0.0020 H       
@<TRIPOS>BOND
   1    1    2 1
   2    1    3 2
   3    2    5 1
   4    3    4 1
   5    3    7 1
   6    4    5 2
   7    5    6 1
   8    6    8 ar
   9    6   12 ar
  10    7   13 ar
  11    7   17 ar
  12    8    9 ar
  13    8   29 1
  14    9   10 ar
  15    9   21 1
  16   10   11 ar
  17   10   18 1
  18   11   12 ar
  19   11   30 1
  20   12   31 1
  21   13   14 ar
  22   13   32 1
  23   14   15 ar
  24   14   33 1
  25   15   16 ar
  26   15   24 1
  27   16   17 ar
  28   16   34 1
  29   17   35 1
  30   18   20 1
  31   19   20 1
  32   19   36 1
  33   19   37 1
  34   19   38 1
  35   20   39 1
  36   20   40 1
  37   21   22 1
  38   22   23 1
  39   22   41 1
  40   22   42 1
  41   23   43 1
  42   23   44 1
  43   23   45 1
  44   24   25 1
  45   25   26 1
  46   25   27 1
  47   25   28 1

#	End of record

