#	Name: ASD03091181
#	Creating user name:	WinNT
#	Creation time:	15. 06. 2019 20:30

#	Modifying user name:	WinNT
#	Modification time:	15. 06. 2019 20:30

#	Program:	/corina/corina34_cracker 3.40 0067  02.08.2006

@<TRIPOS>MOLECULE
ASD03091181
  64   68    0    0    0
SMALL
NO_CHARGES


@<TRIPOS>ATOM
   1 C1            -0.0280     1.4681     0.0328 C.2     
   2 C2             0.0044    -0.0384     0.0109 C.3     
   3 O3             1.0089     2.0970     0.0350 O.2     
   4 N4            -1.2095     2.1165     0.0444 N.am    
   5 C5            -1.2411     3.5810     0.0657 C.3     
   6 C6            -2.5602     4.0715    -0.5344 C.3     
   7 C7            -1.1237     4.0727     1.5098 C.3     
   8 N8             3.3304    -1.0140     1.2308 N.2     
   9 C9             2.0878    -0.6114     1.1705 C.2     
  10 N10            1.3958    -0.4967    -0.0050 N.am    
  11 C11            1.9894    -0.8045    -1.1817 C.2     
  12 C12            3.3870    -1.2596    -1.1381 C.ar    
  13 C13            4.0844    -1.6001    -2.2948 C.ar    
  14 C14            5.3992    -2.0231    -2.1951 C.ar    
  15 C15            6.0210    -2.1086    -0.9493 C.ar    
  16 C16            5.3504    -1.7782     0.1929 C.ar    
  17 C17            4.0219    -1.3475     0.1220 C.ar    
  18 O18            1.3889    -0.7086    -2.2363 O.2     
  19 C19            1.3980    -0.2640     2.4308 C.ar    
  20 C20            0.1891    -0.8788     2.7604 C.ar    
  21 C21           -0.4503    -0.5491     3.9401 C.ar    
  22 C22            0.1073     0.3894     4.7940 C.ar    
  23 C23            1.3050     1.0010     4.4713 C.ar    
  24 C24            1.9559     0.6760     3.2988 C.ar    
  25 F25           -1.6208    -1.1423     4.2615 F       
  26 N26            7.1066    -2.0662    -6.1213 N.3     
  27 C27            5.9221    -2.8668    -5.7754 C.3     
  28 C28            5.2420    -2.3111    -4.5339 C.3     
  29 N29            6.1074    -2.3670    -3.3498 N.3     
  30 C30            7.2816    -1.5007    -3.5250 C.3     
  31 C31            8.4561    -2.3016    -4.0669 C.3     
  32 C32            8.3102    -2.6682    -5.5301 C.3     
  33 C33            7.0108    -0.6428    -5.8779 C.3     
  34 C34            6.9018    -0.3180    -4.3971 C.3     
  35 H35           -0.4955    -0.4256     0.8988 H       
  36 H36           -0.5073    -0.3999    -0.8810 H       
  37 H37           -2.0389     1.6136     0.0387 H       
  38 H38           -0.4084     3.9710    -0.5196 H       
  39 H39           -3.3929     3.6815     0.0510 H       
  40 H40           -2.5838     5.1611    -0.5185 H       
  41 H41           -2.6439     3.7212    -1.5632 H       
  42 H42           -1.9564     3.6828     2.0952 H       
  43 H43           -0.1839     3.7233     1.9374 H       
  44 H44           -1.1472     5.1624     1.5257 H       
  45 H45            3.6042    -1.5352    -3.2600 H       
  46 H46            7.0468    -2.4408    -0.8875 H       
  47 H47            5.8451    -1.8498     1.1503 H       
  48 H48           -0.2457    -1.6099     2.0950 H       
  49 H49           -0.3958     0.6446     5.7149 H       
  50 H50            1.7343     1.7316     5.1409 H       
  51 H51            2.8935     1.1512     3.0511 H       
  52 H52            5.2198    -2.8474    -6.6087 H       
  53 H53            6.2270    -3.8963    -5.5875 H       
  54 H54            4.9629    -1.2738    -4.7186 H       
  55 H55            4.3383    -2.8884    -4.3382 H       
  56 H56            7.5611    -1.1097    -2.5467 H       
  57 H57            9.3662    -1.7148    -3.9428 H       
  58 H58            8.5522    -3.2181    -3.4849 H       
  59 H59            8.2469    -3.7526    -5.6206 H       
  60 H60            9.1873    -2.3175    -6.0739 H       
  61 H61            7.8974    -0.1546    -6.2825 H       
  62 H62            6.1307    -0.2549    -6.3906 H       
  63 H63            5.8754    -0.0275    -4.1728 H       
  64 H64            7.5629     0.5178    -4.1682 H       
@<TRIPOS>BOND
   1    1    2 1
   2    1    3 2
   3    1    4 am
   4    2   10 1
   5    2   35 1
   6    2   36 1
   7    4    5 1
   8    4   37 1
   9    5    6 1
  10    5    7 1
  11    5   38 1
  12    6   39 1
  13    6   40 1
  14    6   41 1
  15    7   42 1
  16    7   43 1
  17    7   44 1
  18    8    9 2
  19    8   17 1
  20    9   10 1
  21    9   19 1
  22   10   11 am
  23   11   12 1
  24   11   18 2
  25   12   13 ar
  26   12   17 ar
  27   13   14 ar
  28   13   45 1
  29   14   15 ar
  30   14   29 1
  31   15   16 ar
  32   15   46 1
  33   16   17 ar
  34   16   47 1
  35   19   20 ar
  36   19   24 ar
  37   20   21 ar
  38   20   48 1
  39   21   22 ar
  40   21   25 1
  41   22   23 ar
  42   22   49 1
  43   23   24 ar
  44   23   50 1
  45   24   51 1
  46   26   27 1
  47   26   32 1
  48   26   33 1
  49   27   28 1
  50   27   52 1
  51   27   53 1
  52   28   29 1
  53   28   54 1
  54   28   55 1
  55   29   30 1
  56   30   31 1
  57   30   34 1
  58   30   56 1
  59   31   32 1
  60   31   57 1
  61   31   58 1
  62   32   59 1
  63   32   60 1
  64   33   34 1
  65   33   61 1
  66   33   62 1
  67   34   63 1
  68   34   64 1

#	End of record

