#	Name: ASD03731254
#	Creating user name:	WinNT
#	Creation time:	15. 06. 2019 20:45

#	Modifying user name:	WinNT
#	Modification time:	15. 06. 2019 20:45

#	Program:	/corina/corina34_cracker 3.40 0067  02.08.2006

@<TRIPOS>MOLECULE
ASD03731254
  57   62    0    0    0
SMALL
NO_CHARGES


@<TRIPOS>ATOM
   1 N1            -0.0649     1.3600    -0.1937 N.am    
   2 C2            -0.0293     0.0128    -0.2102 C.2     
   3 O3             1.0190    -0.5651    -0.4232 O.2     
   4 N4            -1.1558    -0.6938     0.0094 N.am    
   5 C5            -1.1402    -2.0885    -0.1039 C.ar    
   6 C6            -0.0175    -2.8059     0.2875 C.ar    
   7 C7            -0.0054    -4.1824     0.1749 C.ar    
   8 C8            -1.1097    -4.8462    -0.3270 C.ar    
   9 C9            -2.2293    -4.1348    -0.7176 C.ar    
  10 C10           -2.2496    -2.7586    -0.6026 C.ar    
  11 C11           -1.0929    -6.3482    -0.4489 C.3     
  12 F12           -1.5791    -6.9175     0.7329 F       
  13 F13           -1.9020    -6.7380    -1.5216 F       
  14 F14            0.2180    -6.7834    -0.6713 F       
  15 C15            1.1596     2.1281    -0.4323 C.3     
  16 C16            0.8459     3.6238    -0.3593 C.3     
  17 O17            7.0097     2.2093    -3.7794 O.3     
  18 C18            8.3065     2.5816    -4.2822 C.3     
  19 O19            8.1144     3.9251    -4.7628 O.3     
  20 C20            7.0895     4.4366    -4.0193 C.ar    
  21 C21            6.4100     3.3809    -3.4157 C.ar    
  22 C22            6.6752     5.7388    -3.8044 C.ar    
  23 C23            5.5797     6.0046    -2.9884 C.ar    
  24 C24            4.9039     4.9413    -2.3975 C.ar    
  25 C25            5.3183     3.6422    -2.6049 C.ar    
  26 O26            5.0246     7.1996    -2.6361 O.3     
  27 C27            3.7681     5.5389    -1.6110 C.3     
  28 C28            3.6895     6.9764    -2.1430 C.3     
  29 N29            2.0704     4.3918    -0.5980 N.am    
  30 C30            2.4805     4.7944    -1.8173 C.2     
  31 C31            4.0162     5.5023    -0.1322 C.ar    
  32 C32            5.0128     5.9991     0.6779 C.ar    
  33 C33            4.9594     5.7969     2.0455 C.ar    
  34 C34            3.9034     5.0942     2.5967 C.ar    
  35 C35            2.9032     4.5938     1.7894 C.ar    
  36 C36            2.9485     4.7929     0.4117 C.ar    
  37 O37            1.9193     4.5948    -2.8738 O.2     
  38 H38           -0.9020     1.8211    -0.0277 H       
  39 H39           -1.9774    -0.2355     0.2459 H       
  40 H40            0.8455    -2.2879     0.6793 H       
  41 H41            0.8677    -4.7408     0.4788 H       
  42 H42           -3.0902    -4.6561    -1.1092 H       
  43 H43           -3.1260    -2.2038    -0.9037 H       
  44 H44            1.9009     1.8749     0.3257 H       
  45 H45            1.5530     1.8871    -1.4199 H       
  46 H46            0.1046     3.8769    -1.1173 H       
  47 H47            0.4525     3.8647     0.6283 H       
  48 H48            9.0470     2.5632    -3.4826 H       
  49 H49            8.6050     1.9223    -5.0973 H       
  50 H50            7.2054     6.5546    -4.2731 H       
  51 H51            4.7896     2.8266    -2.1340 H       
  52 H52            3.4517     7.6739    -1.3399 H       
  53 H53            2.9611     7.0510    -2.9504 H       
  54 H54            5.8367     6.5473     0.2453 H       
  55 H55            5.7404     6.1871     2.6812 H       
  56 H56            3.8618     4.9363     3.6643 H       
  57 H57            2.0820     4.0457     2.2271 H       
@<TRIPOS>BOND
   1    1    2 am
   2    1   15 1
   3    1   38 1
   4    2    3 2
   5    2    4 am
   6    4    5 1
   7    4   39 1
   8    5    6 ar
   9    5   10 ar
  10    6    7 ar
  11    6   40 1
  12    7    8 ar
  13    7   41 1
  14    8    9 ar
  15    8   11 1
  16    9   10 ar
  17    9   42 1
  18   10   43 1
  19   11   12 1
  20   11   13 1
  21   11   14 1
  22   15   16 1
  23   15   44 1
  24   15   45 1
  25   16   29 1
  26   16   46 1
  27   16   47 1
  28   17   18 1
  29   17   21 1
  30   18   19 1
  31   18   48 1
  32   18   49 1
  33   19   20 1
  34   20   21 ar
  35   20   22 ar
  36   21   25 ar
  37   22   23 ar
  38   22   50 1
  39   23   24 ar
  40   23   26 1
  41   24   25 ar
  42   24   27 1
  43   25   51 1
  44   26   28 1
  45   27   28 1
  46   27   30 1
  47   27   31 1
  48   28   52 1
  49   28   53 1
  50   29   30 am
  51   29   36 1
  52   30   37 2
  53   31   32 ar
  54   31   36 ar
  55   32   33 ar
  56   32   54 1
  57   33   34 ar
  58   33   55 1
  59   34   35 ar
  60   34   56 1
  61   35   36 ar
  62   35   57 1

#	End of record

