#	Name: ASD01850101
#	Creating user name:	WinNT
#	Creation time:	15. 06. 2019 19:38

#	Modifying user name:	WinNT
#	Modification time:	15. 06. 2019 19:38

#	Program:	/corina/corina34_cracker 3.40 0067  02.08.2006

@<TRIPOS>MOLECULE
ASD01850101
  55   59    0    0    0
SMALL
NO_CHARGES


@<TRIPOS>ATOM
   1 C1             0.3574     1.5291    -0.3801 C.ar    
   2 C2             0.4598     0.1598    -0.5482 C.ar    
   3 C3             1.6920    -0.4582    -0.4860 C.ar    
   4 C4             2.8389     0.2999    -0.2530 C.ar    
   5 C5             2.7232     1.6830    -0.0659 C.ar    
   6 C6             1.4902     2.2883    -0.1394 C.ar    
   7 C7             4.2696    -0.0612    -0.1573 C.2     
   8 N8             5.0105     1.0436    -0.0802 N.am    
   9 C9             4.1100     2.1822     0.2157 C.3     
  10 C10            6.3227     1.7000    -0.2298 C.3     
  11 C11            5.9681     3.0096    -0.9766 C.3     
  12 N12            4.5353     3.2494    -0.6965 N.am    
  13 C13            3.7727     4.2485    -1.1832 C.2     
  14 C14            4.3754     5.2839    -2.0475 C.ar    
  15 C15            3.5754     6.2841    -2.6046 C.ar    
  16 C16            4.1440     7.2492    -3.4109 C.ar    
  17 C17            5.5086     7.2258    -3.6677 C.ar    
  18 C18            6.3051     6.2346    -3.1169 C.ar    
  19 C19            5.7474     5.2693    -2.3054 C.ar    
  20 O20            2.5889     4.2976    -0.9108 O.2     
  21 C21            4.2413     2.6082     1.6553 C.ar    
  22 O22            4.7047    -1.1962    -0.1499 O.2     
  23 F23            6.0614     8.1722    -4.4576 F       
  24 F24            3.3722     8.2174    -3.9514 F       
  25 C25            4.0267     3.9281     2.0068 C.ar    
  26 C26            4.1465     4.3211     3.3257 C.ar    
  27 C27            4.4823     3.3901     4.2979 C.ar    
  28 C28            4.6970     2.0664     3.9427 C.ar    
  29 C29            4.5705     1.6773     2.6232 C.ar    
  30 O30            4.6011     3.7743     5.5960 O.3     
  31 C31            4.4459     5.1668     5.8773 C.3     
  32 C32            4.0441     5.3495     7.3422 C.3     
  33 C33            5.7688     5.8901     5.6173 C.3     
  34 H34           -0.6086     2.0082    -0.4413 H       
  35 H35           -0.4282    -0.4279    -0.7285 H       
  36 H36            1.7680    -1.5275    -0.6173 H       
  37 H37            1.4056     3.3572    -0.0098 H       
  38 H38            6.7590     1.9175     0.7451 H       
  39 H39            6.9962     1.0852    -0.8269 H       
  40 H40            6.5699     3.8351    -0.5966 H       
  41 H41            6.1276     2.8877    -2.0480 H       
  42 H42            2.5141     6.3021    -2.4052 H       
  43 H43            7.3657     6.2208    -3.3201 H       
  44 H44            6.3698     4.4976    -1.8770 H       
  45 H45            3.7657     4.6525     1.2495 H       
  46 H46            3.9791     5.3523     3.5997 H       
  47 H47            4.9585     1.3397     4.6977 H       
  48 H48            4.7376     0.6469     2.3461 H       
  49 H49            3.6713     5.5834     5.2334 H       
  50 H50            4.8186     4.9329     7.9861 H       
  51 H51            3.9257     6.4116     7.5568 H       
  52 H52            3.1016     4.8341     7.5275 H       
  53 H53            6.5434     5.4735     6.2612 H       
  54 H54            6.0551     5.7600     4.5736 H       
  55 H55            5.6504     6.9522     5.8318 H       
@<TRIPOS>BOND
   1    1    2 ar
   2    1    6 ar
   3    1   34 1
   4    2    3 ar
   5    2   35 1
   6    3    4 ar
   7    3   36 1
   8    4    5 ar
   9    4    7 1
  10    5    6 ar
  11    5    9 1
  12    6   37 1
  13    7    8 am
  14    7   22 2
  15    8    9 1
  16    8   10 1
  17    9   21 1
  18    9   12 1
  19   10   11 1
  20   10   38 1
  21   10   39 1
  22   11   12 1
  23   11   40 1
  24   11   41 1
  25   12   13 am
  26   13   14 1
  27   13   20 2
  28   14   15 ar
  29   14   19 ar
  30   15   16 ar
  31   15   42 1
  32   16   17 ar
  33   16   24 1
  34   17   18 ar
  35   17   23 1
  36   18   19 ar
  37   18   43 1
  38   19   44 1
  39   21   25 ar
  40   21   29 ar
  41   25   26 ar
  42   25   45 1
  43   26   27 ar
  44   26   46 1
  45   27   28 ar
  46   27   30 1
  47   28   29 ar
  48   28   47 1
  49   29   48 1
  50   30   31 1
  51   31   32 1
  52   31   33 1
  53   31   49 1
  54   32   50 1
  55   32   51 1
  56   32   52 1
  57   33   53 1
  58   33   54 1
  59   33   55 1

#	End of record

