#	Name: ASD01915539
#	Creating user name:	WinNT
#	Creation time:	15. 06. 2019 20:05

#	Modifying user name:	WinNT
#	Modification time:	15. 06. 2019 20:05

#	Program:	/corina/corina34_cracker 3.40 0067  02.08.2006

@<TRIPOS>MOLECULE
ASD01915539
  44   46    0    0    0
SMALL
NO_CHARGES


@<TRIPOS>ATOM
   1 C1            -0.0166     1.3727     0.0096 C.2     
   2 N2             0.0021    -0.0041     0.0020 N.pl3   
   3 C3            -1.2434    -0.7807    -0.0179 C.3     
   4 C4            -2.3411     0.0066     0.6955 C.3     
   5 N5            -2.4047     1.3987     0.2638 N.am    
   6 C6            -1.2817     2.1229     0.0393 C.2     
   7 C7             1.2842     1.7904    -0.0006 C.2     
   8 C8             2.0436     0.6125    -0.0023 C.2     
   9 N9             1.2133    -0.4043     0.0045 N.2     
  10 C10            3.5482     0.5280    -0.0106 C.3     
  11 O11            4.0993     1.8464    -0.0166 O.3     
  12 C12            5.4544     1.9487    -0.0244 C.ar    
  13 C13           -3.7130     2.0282     0.0684 C.3     
  14 O14           -1.3176     3.3270    -0.1285 O.2     
  15 C15            6.0569     3.1983    -0.0305 C.ar    
  16 C16            6.2376     0.8036    -0.0206 C.ar    
  17 C17            7.6149     0.9102    -0.0287 C.ar    
  18 C18            8.2129     2.1568    -0.0405 C.ar    
  19 C19            7.4346     3.2996    -0.0385 C.ar    
  20 C20           -3.8441     3.2326     1.0028 C.3     
  21 C21           -3.8439     2.4925    -1.3835 C.3     
  22 O22           -2.8868     3.5215    -1.6426 O.3     
  23 C23           -2.9250     4.0279    -2.9784 C.3     
  24 H24           -1.5404    -0.9655    -1.0502 H       
  25 H25           -1.0875    -1.7314     0.4920 H       
  26 H26           -3.3017    -0.4683     0.4957 H       
  27 H27           -2.1535    -0.0210     1.7689 H       
  28 H28            1.6482     2.8072    -0.0061 H       
  29 H29            3.8871    -0.0035     0.8786 H       
  30 H30            3.8771    -0.0073    -0.9013 H       
  31 H31           -4.4999     1.3077     0.2918 H       
  32 H32            5.4494     4.0912    -0.0293 H       
  33 H33            5.7710    -0.1704    -0.0110 H       
  34 H34            8.2251     0.0191    -0.0254 H       
  35 H35            9.2899     2.2380    -0.0467 H       
  36 H36            7.9041     4.2721    -0.0481 H       
  37 H37           -3.0573     3.9531     0.7795 H       
  38 H38           -4.8176     3.7010     0.8575 H       
  39 H39           -3.7509     2.9018     2.0372 H       
  40 H40           -3.6624     1.6508    -2.0519 H       
  41 H41           -4.8486     2.8801    -1.5519 H       
  42 H42           -2.1691     4.8045    -3.0943 H       
  43 H43           -2.7245     3.2181    -3.6798 H       
  44 H44           -3.9107     4.4473    -3.1798 H       
@<TRIPOS>BOND
   1    1    2 1
   2    1    7 2
   3    1    6 1
   4    2    3 1
   5    2    9 1
   6    3    4 1
   7    3   24 1
   8    3   25 1
   9    4    5 1
  10    4   26 1
  11    4   27 1
  12    5    6 am
  13    5   13 1
  14    6   14 2
  15    7    8 1
  16    7   28 1
  17    8    9 2
  18    8   10 1
  19   10   11 1
  20   10   29 1
  21   10   30 1
  22   11   12 1
  23   12   15 ar
  24   12   16 ar
  25   13   20 1
  26   13   21 1
  27   13   31 1
  28   15   19 ar
  29   15   32 1
  30   16   17 ar
  31   16   33 1
  32   17   18 ar
  33   17   34 1
  34   18   19 ar
  35   18   35 1
  36   19   36 1
  37   20   37 1
  38   20   38 1
  39   20   39 1
  40   21   22 1
  41   21   40 1
  42   21   41 1
  43   22   23 1
  44   23   42 1
  45   23   43 1
  46   23   44 1

#	End of record

