#	Name: ASD02508039
#	Creating user name:	WinNT
#	Creation time:	15. 06. 2019 20:23

#	Modifying user name:	WinNT
#	Modification time:	15. 06. 2019 20:23

#	Program:	/corina/corina34_cracker 3.40 0067  02.08.2006

@<TRIPOS>MOLECULE
ASD02508039
  37   39    0    0    0
SMALL
NO_CHARGES


@<TRIPOS>ATOM
   1 C1             0.0883     1.7449     0.3853 C.ar    
   2 C2             0.0128     0.3634     0.3022 C.ar    
   3 C3             1.3298     2.3794     0.3510 C.ar    
   4 C4             2.4854     1.6228     0.2340 C.ar    
   5 C5             2.4024     0.2465     0.1521 C.ar    
   6 C6             1.1697    -0.3822     0.1854 C.ar    
   7 N7            -0.8704     2.7511     0.5011 N.am    
   8 C8            -0.2179     3.9298     0.5395 C.2     
   9 O9             1.1035     3.7124     0.4488 O.3     
  10 S10            3.8725    -0.7133     0.0034 S.o2    
  11 N11            4.3759    -1.0798     1.5379 N.am    
  12 C12            3.5448    -1.8163     2.3898 C.ar    
  13 C13            3.5204    -1.5371     3.7548 C.ar    
  14 C14            2.7394    -2.8219     1.8767 C.ar    
  15 C15            1.9184    -3.5482     2.7210 C.ar    
  16 C16            1.8990    -3.2735     4.0765 C.ar    
  17 C17            2.6963    -2.2682     4.5934 C.ar    
  18 O18            3.4900    -1.9427    -0.5978 O.2     
  19 O19            4.8596     0.1475    -0.5479 O.2     
  20 O20            4.3051    -0.5486     4.2625 O.3     
  21 C21           -2.3215     2.5615     0.5683 C.3     
  22 O22           -0.7450     5.0213     0.6367 O.2     
  23 Cl23           0.9100    -4.8064     2.0777 Cl      
  24 C24            4.2283    -0.3181     5.6707 C.3     
  25 H25           -0.9481    -0.1289     0.3290 H       
  26 H26            3.4494     2.1089     0.2066 H       
  27 H27            1.1124    -1.4587     0.1210 H       
  28 H28            5.2467    -0.7841     1.8463 H       
  29 H29            2.7527    -3.0377     0.8186 H       
  30 H30            1.2568    -3.8426     4.7323 H       
  31 H31            2.6791    -2.0564     5.6523 H       
  32 H32           -2.6256     2.4498     1.6091 H       
  33 H33           -2.8215     3.4275     0.1346 H       
  34 H34           -2.5971     1.6661     0.0112 H       
  35 H35            3.2070    -0.0485     5.9396 H       
  36 H36            4.5172    -1.2241     6.2034 H       
  37 H37            4.9022     0.4941     5.9431 H       
@<TRIPOS>BOND
   1    1    2 ar
   2    1    3 ar
   3    1    7 1
   4    2    6 ar
   5    2   25 1
   6    3    4 ar
   7    3    9 1
   8    4    5 ar
   9    4   26 1
  10    5    6 ar
  11    5   10 1
  12    6   27 1
  13    7    8 am
  14    7   21 1
  15    8    9 1
  16    8   22 2
  17   10   11 am
  18   10   18 2
  19   10   19 2
  20   11   12 1
  21   11   28 1
  22   12   13 ar
  23   12   14 ar
  24   13   20 1
  25   13   17 ar
  26   14   15 ar
  27   14   29 1
  28   15   16 ar
  29   15   23 1
  30   16   17 ar
  31   16   30 1
  32   17   31 1
  33   20   24 1
  34   21   32 1
  35   21   33 1
  36   21   34 1
  37   24   35 1
  38   24   36 1
  39   24   37 1

#	End of record

