#	Name: ASD01830001
#	Creating user name:	WinNT
#	Creation time:	15. 06. 2019 19:36

#	Modifying user name:	WinNT
#	Modification time:	15. 06. 2019 19:36

#	Program:	/corina/corina34_cracker 3.40 0067  02.08.2006

@<TRIPOS>MOLECULE
ASD01830001
  31   31    0    0    0
SMALL
NO_CHARGES


@<TRIPOS>ATOM
   1 C1             0.5165     1.5182     1.0223 C.ar    
   2 C2             0.6575     0.7032     2.1468 C.ar    
   3 C3             1.9170     0.3604     2.5928 C.ar    
   4 C4             3.0393     0.8231     1.9283 C.ar    
   5 C5             2.9065     1.6315     0.8136 C.ar    
   6 C6             1.6524     1.9810     0.3565 C.ar    
   7 C7             2.0712    -0.5193     3.8065 C.3     
   8 C8            -0.8305     1.8846     0.5351 C.2     
   9 N9            -1.0965     3.1581     0.1832 N.am    
  10 O10           -1.6980     1.0372     0.4519 O.2     
  11 C11           -0.0722     4.1926     0.3474 C.3     
  12 C12            0.6061     4.4569    -0.9983 C.3     
  13 C13           -2.4098     3.5079    -0.3635 C.3     
  14 C14           -3.3506     3.8969     0.7787 C.3     
  15 H15           -0.2175     0.3421     2.6667 H       
  16 H16            4.0231     0.5521     2.2818 H       
  17 H17            3.7864     1.9898     0.3000 H       
  18 H18            1.5500     2.6116    -0.5142 H       
  19 H19            2.0949    -1.5643     3.4972 H       
  20 H20            3.0004    -0.2711     4.3195 H       
  21 H21            1.2299    -0.3590     4.4808 H       
  22 H22           -0.5374     5.1107     0.7064 H       
  23 H23            0.6717     3.8559     1.0694 H       
  24 H24            1.5772     4.9226    -0.8304 H       
  25 H25            0.7420     3.5141    -1.5280 H       
  26 H26           -0.0177     5.1224    -1.5951 H       
  27 H27           -2.3055     4.3479    -1.0503 H       
  28 H28           -2.8211     2.6511    -0.8972 H       
  29 H29           -3.4549     3.0569     1.4655 H       
  30 H30           -2.9393     4.7537     1.3124 H       
  31 H31           -4.3278     4.1571     0.3719 H       
@<TRIPOS>BOND
   1    1    2 ar
   2    1    6 ar
   3    1    8 1
   4    2    3 ar
   5    2   15 1
   6    3    4 ar
   7    3    7 1
   8    4    5 ar
   9    4   16 1
  10    5    6 ar
  11    5   17 1
  12    6   18 1
  13    7   19 1
  14    7   20 1
  15    7   21 1
  16    8    9 am
  17    8   10 2
  18    9   11 1
  19    9   13 1
  20   11   12 1
  21   11   22 1
  22   11   23 1
  23   12   24 1
  24   12   25 1
  25   12   26 1
  26   13   14 1
  27   13   27 1
  28   13   28 1
  29   14   29 1
  30   14   30 1
  31   14   31 1

#	End of record

