#	Name: ASD01816088
#	Creating user name:	WinNT
#	Creation time:	15. 06. 2019 19:34

#	Modifying user name:	WinNT
#	Modification time:	15. 06. 2019 19:34

#	Program:	/corina/corina34_cracker 3.40 0067  02.08.2006

@<TRIPOS>MOLECULE
ASD01816088
  55   60    0    0    0
SMALL
NO_CHARGES


@<TRIPOS>ATOM
   1 C1            -0.1174     1.2113     0.0986 C.ar    
   2 C2            -0.0438    -0.1722     0.0858 C.ar    
   3 C3             1.1784    -0.8108     0.0461 C.ar    
   4 C4             2.3525    -0.0667     0.0185 C.ar    
   5 C5             2.2744     1.3359     0.0310 C.ar    
   6 C6             1.0361     1.9682     0.0711 C.ar    
   7 N7             3.5820    -0.7014    -0.0204 N.pl3   
   8 C8             4.7479    -0.0358    -0.0480 C.2     
   9 C9             4.7965     1.3360    -0.0392 C.2     
  10 C10            3.5324     2.1061     0.0011 C.2     
  11 C11            5.8543     2.3415    -0.0608 C.2     
  12 N12            5.2339     3.5409    -0.0349 N.am    
  13 N13            3.8478     3.3694     0.0018 N.2     
  14 O14            7.0572     2.1392    -0.0947 O.2     
  15 C15            3.6127    -2.1660    -0.0316 C.3     
  16 C16            3.5834    -2.6583    -1.4556 C.ar    
  17 C17            4.7626    -2.8610    -2.1483 C.ar    
  18 N18            4.7502    -3.2915    -3.3936 N.ar    
  19 C19            3.6146    -3.5465    -4.0299 C.ar    
  20 C20            2.3892    -3.3638    -3.3925 C.ar    
  21 C21            2.3727    -2.9179    -2.0823 C.ar    
  22 C22            5.8870     4.7799    -0.0435 C.ar    
  23 C23            5.6286     5.7111     0.9567 C.ar    
  24 C24            6.7982     5.0794    -1.0475 C.ar    
  25 C25            7.4407     6.3021    -1.0534 C.ar    
  26 C26            7.1780     7.2288    -0.0611 C.ar    
  27 C27            6.2758     6.9334     0.9442 C.ar    
  28 F28            4.7467     5.4224     1.9385 F       
  29 C29            3.6496    -4.0297    -5.4321 C.ar    
  30 C30            4.4472    -3.3931    -6.3805 C.ar    
  31 N31            4.4794    -3.8216    -7.6259 N.ar    
  32 C32            3.7676    -4.8581    -8.0241 C.ar    
  33 C33            2.9512    -5.5434    -7.1426 C.ar    
  34 C34            2.8873    -5.1347    -5.8217 C.ar    
  35 C35            5.2801    -2.2033    -5.9784 C.3     
  36 H36           -1.0807     1.6989     0.1255 H       
  37 H37           -0.9519    -0.7563     0.1075 H       
  38 H38            1.2232    -1.8899     0.0369 H       
  39 H39            0.9777     3.0466     0.0807 H       
  40 H40            5.6717    -0.5945    -0.0774 H       
  41 H41            4.5241    -2.5141     0.4545 H       
  42 H42            2.7453    -2.5517     0.5041 H       
  43 H43            5.7066    -2.6634    -1.6623 H       
  44 H44            1.4654    -3.5712    -3.9120 H       
  45 H45            1.4383    -2.7670    -1.5622 H       
  46 H46            7.0047     4.3566    -1.8230 H       
  47 H47            8.1497     6.5347    -1.8342 H       
  48 H48            7.6825     8.1837    -0.0686 H       
  49 H49            6.0729     7.6593     1.7177 H       
  50 H50            3.8228    -5.1765    -9.0546 H       
  51 H51            2.3730    -6.3907    -7.4804 H       
  52 H52            2.2583    -5.6515    -5.1121 H       
  53 H53            6.2242    -2.5470    -5.5556 H       
  54 H54            5.4778    -1.5854    -6.8543 H       
  55 H55            4.7408    -1.6171    -5.2344 H       
@<TRIPOS>BOND
   1    1    2 ar
   2    1    6 ar
   3    1   36 1
   4    2    3 ar
   5    2   37 1
   6    3    4 ar
   7    3   38 1
   8    4    5 ar
   9    4    7 1
  10    5    6 ar
  11    5   10 1
  12    6   39 1
  13    7    8 1
  14    7   15 1
  15    8    9 2
  16    8   40 1
  17    9   10 1
  18    9   11 1
  19   10   13 2
  20   11   12 am
  21   11   14 2
  22   12   13 1
  23   12   22 1
  24   15   16 1
  25   15   41 1
  26   15   42 1
  27   16   17 ar
  28   16   21 ar
  29   17   18 ar
  30   17   43 1
  31   18   19 ar
  32   19   20 ar
  33   19   29 1
  34   20   21 ar
  35   20   44 1
  36   21   45 1
  37   22   23 ar
  38   22   24 ar
  39   23   28 1
  40   23   27 ar
  41   24   25 ar
  42   24   46 1
  43   25   26 ar
  44   25   47 1
  45   26   27 ar
  46   26   48 1
  47   27   49 1
  48   29   30 ar
  49   29   34 ar
  50   30   31 ar
  51   30   35 1
  52   31   32 ar
  53   32   33 ar
  54   32   50 1
  55   33   34 ar
  56   33   51 1
  57   34   52 1
  58   35   53 1
  59   35   54 1
  60   35   55 1

#	End of record

