#	Name: ASD04590181
#	Creating user name:	WinNT
#	Creation time:	15. 06. 2019 20:50

#	Modifying user name:	WinNT
#	Modification time:	15. 06. 2019 20:50

#	Program:	/corina/corina34_cracker 3.40 0067  02.08.2006

@<TRIPOS>MOLECULE
ASD04590181
  48   50    0    0    0
SMALL
NO_CHARGES


@<TRIPOS>ATOM
   1 N1            -0.0153     1.2802     0.0091 N.pl3   
   2 N2             0.0021    -0.0041     0.0020 N.2     
   3 C3             1.2455    -0.4440    -0.0122 C.2     
   4 C4             2.0903     0.6961    -0.0142 C.2     
   5 C5             1.2523     1.7667    -0.0004 C.2     
   6 C6             1.6765    -1.8547    -0.0235 C.2     
   7 N7             0.7571    -2.8402    -0.0200 N.am    
   8 O8             2.8611    -2.1284    -0.0359 O.2     
   9 N9             3.4930     0.7146    -0.0270 N.am    
  10 C10            4.1514     1.8906    -0.0271 C.2     
  11 O11            3.5296     2.9356    -0.0159 O.2     
  12 C12            5.6264     1.9101    -0.0406 C.ar    
  13 C13            6.3411     1.9132     1.1622 C.ar    
  14 C14            7.7230     1.9315     1.1402 C.ar    
  15 C15            8.3993     1.9473    -0.0661 C.ar    
  16 C16            7.7007     1.9449    -1.2598 C.ar    
  17 C17            6.3188     1.9199    -1.2564 C.ar    
  18 F18            5.6824     1.8987     2.3416 F       
  19 F19            5.6383     1.9171    -2.4235 F       
  20 C20            1.1851    -4.2412    -0.0312 C.3     
  21 C21            0.0782    -5.1078    -0.6351 C.3     
  22 C22            0.5252    -6.5710    -0.6468 C.3     
  23 C23            0.8077    -7.0294     0.7853 C.3     
  24 C24            1.9146    -6.1628     1.3892 C.3     
  25 C25            1.4676    -4.6996     1.4009 C.3     
  26 C26            1.2547    -8.4926     0.7737 C.3     
  27 N27            1.4105    -8.9681     2.1548 N.3     
  28 H28           -0.8184     1.8242     0.0160 H       
  29 H29            1.5405     2.8076     0.0024 H       
  30 H30           -0.1879    -2.6218    -0.0102 H       
  31 H31            3.9890    -0.1189    -0.0359 H       
  32 H32            8.2762     1.9339     2.0678 H       
  33 H33            9.4791     1.9620    -0.0760 H       
  34 H34            8.2367     1.9580    -2.1973 H       
  35 H35            2.0908    -4.3397    -0.6296 H       
  36 H36           -0.8276    -5.0094    -0.0367 H       
  37 H37           -0.1231    -4.7812    -1.6554 H       
  38 H38           -0.2634    -7.1884    -1.0770 H       
  39 H39            1.4309    -6.6695    -1.2451 H       
  40 H40           -0.0981    -6.9310     1.3837 H       
  41 H41            2.1159    -6.4894     2.4095 H       
  42 H42            2.8203    -6.2613     0.7908 H       
  43 H43            2.2562    -4.0822     1.8311 H       
  44 H44            0.5619    -4.6012     1.9993 H       
  45 H45            0.5049    -9.0975     0.2636 H       
  46 H46            2.2072    -8.5774     0.2505 H       
  47 H47            1.7054    -9.9328     2.1741 H       
  48 H48            2.0528    -8.3833     2.6682 H       
@<TRIPOS>BOND
   1    1    2 1
   2    1    5 1
   3    1   28 1
   4    2    3 2
   5    3    4 1
   6    3    6 1
   7    4    5 2
   8    4    9 1
   9    5   29 1
  10    6    7 am
  11    6    8 2
  12    7   20 1
  13    7   30 1
  14    9   10 am
  15    9   31 1
  16   10   11 2
  17   10   12 1
  18   12   13 ar
  19   12   17 ar
  20   13   14 ar
  21   13   18 1
  22   14   15 ar
  23   14   32 1
  24   15   16 ar
  25   15   33 1
  26   16   17 ar
  27   16   34 1
  28   17   19 1
  29   20   21 1
  30   20   25 1
  31   20   35 1
  32   21   22 1
  33   21   36 1
  34   21   37 1
  35   22   23 1
  36   22   38 1
  37   22   39 1
  38   23   24 1
  39   23   26 1
  40   23   40 1
  41   24   25 1
  42   24   41 1
  43   24   42 1
  44   25   43 1
  45   25   44 1
  46   26   27 1
  47   26   45 1
  48   26   46 1
  49   27   47 1
  50   27   48 1

#	End of record

