#	Name: ASD03332066
#	Creating user name:	WinNT
#	Creation time:	15. 06. 2019 20:40

#	Modifying user name:	WinNT
#	Modification time:	15. 06. 2019 20:40

#	Program:	/corina/corina34_cracker 3.40 0067  02.08.2006

@<TRIPOS>MOLECULE
ASD03332066
  59   60    0    0    0
SMALL
NO_CHARGES


@<TRIPOS>ATOM
   1 C1             0.1608     1.2130     0.7168 C.2     
   2 N2             0.2491    -0.1108     0.9856 N.pl3   
   3 C3             1.5653    -0.4331     1.0448 C.2     
   4 N4             2.2731     0.6419     0.8422 N.2     
   5 C5             1.4327     1.6899     0.6367 C.2     
   6 C6             1.8263     3.0852     0.3748 C.2     
   7 O7             0.9737     3.9361     0.2062 O.2     
   8 N8             3.1310     3.4188     0.3219 N.am    
   9 C9             3.5224     4.8063     0.0614 C.3     
  10 C10            3.5488     5.0539    -1.4482 C.3     
  11 C11            4.4612     4.0244    -2.1180 C.3     
  12 C12            4.8926     5.0581     0.6358 C.2     
  13 C13            2.1323     4.9228    -2.0114 C.3     
  14 C14            4.0794     6.4620    -1.7249 C.3     
  15 O15            5.5548     4.1316     1.0533 O.2     
  16 N16            5.3824     6.3127     0.6857 N.am    
  17 C17           -0.8875    -1.0137     1.1904 C.3     
  18 C18           -1.9172    -0.7859     0.0796 C.3     
  19 C19           -2.8765     0.3283     0.4861 C.3     
  20 N20           -2.1924     1.3433     1.2901 N.3     
  21 C21           -1.1151     1.9914     0.5274 C.3     
  22 C22            2.1190    -1.8106     1.3037 C.3     
  23 C23           -3.1443     2.3367     1.8047 C.3     
  24 C24            6.7451     6.5485     1.1690 C.3     
  25 C25            2.9757    -2.2478     0.1138 C.3     
  26 C26            2.9786    -1.7852     2.5691 C.3     
  27 F27            2.1896    -2.2711    -1.0432 F       
  28 F28            4.0311    -1.3456    -0.0574 F       
  29 F29            3.4897    -3.5266     0.3542 F       
  30 H30            3.8109     2.7402     0.4563 H       
  31 H31            2.8036     5.4802     0.5275 H       
  32 H32            4.0833     3.0212    -1.9209 H       
  33 H33            4.4801     4.2008    -3.1934 H       
  34 H34            5.4704     4.1178    -1.7167 H       
  35 H35            1.4823     5.6563    -1.5343 H       
  36 H36            2.1512     5.0992    -3.0869 H       
  37 H37            1.7543     3.9196    -1.8144 H       
  38 H38            5.0411     6.5920    -1.2284 H       
  39 H39            4.2036     6.5990    -2.7991 H       
  40 H40            3.3715     7.1983    -1.3442 H       
  41 H41            4.8325     7.0596     0.4015 H       
  42 H42           -0.5418    -2.0470     1.1603 H       
  43 H43           -1.3449    -0.8097     2.1585 H       
  44 H44           -1.4029    -0.5042    -0.8392 H       
  45 H45           -2.4791    -1.7048    -0.0877 H       
  46 H46           -3.2823     0.7960    -0.4109 H       
  47 H47           -3.6940    -0.0977     1.0676 H       
  48 H48           -0.9767     3.0110     0.8868 H       
  49 H49           -1.3775     2.0093    -0.5304 H       
  50 H50            1.2967    -2.5136     1.4371 H       
  51 H51           -3.9270     1.8311     2.3702 H       
  52 H52           -2.6215     3.0380     2.4551 H       
  53 H53           -3.5907     2.8783     0.9707 H       
  54 H54            6.9623     7.6161     1.1370 H       
  55 H55            6.8339     6.1902     2.1946 H       
  56 H56            7.4529     6.0145     0.5351 H       
  57 H57            2.3683    -1.4737     3.4168 H       
  58 H58            3.3791    -2.7815     2.7564 H       
  59 H59            3.8009    -1.0822     2.4357 H       
@<TRIPOS>BOND
   1    1    2 1
   2    1    5 2
   3    1   21 1
   4    2    3 1
   5    2   17 1
   6    3    4 2
   7    3   22 1
   8    4    5 1
   9    5    6 1
  10    6    7 2
  11    6    8 am
  12    8    9 1
  13    8   30 1
  14    9   10 1
  15    9   12 1
  16    9   31 1
  17   10   11 1
  18   10   13 1
  19   10   14 1
  20   11   32 1
  21   11   33 1
  22   11   34 1
  23   12   15 2
  24   12   16 am
  25   13   35 1
  26   13   36 1
  27   13   37 1
  28   14   38 1
  29   14   39 1
  30   14   40 1
  31   16   24 1
  32   16   41 1
  33   17   18 1
  34   17   42 1
  35   17   43 1
  36   18   19 1
  37   18   44 1
  38   18   45 1
  39   19   20 1
  40   19   46 1
  41   19   47 1
  42   20   21 1
  43   20   23 1
  44   21   48 1
  45   21   49 1
  46   22   26 1
  47   22   25 1
  48   22   50 1
  49   23   51 1
  50   23   52 1
  51   23   53 1
  52   24   54 1
  53   24   55 1
  54   24   56 1
  55   25   28 1
  56   25   29 1
  57   25   27 1
  58   26   57 1
  59   26   58 1
  60   26   59 1

#	End of record

