#	Name: ASD01911498
#	Creating user name:	WinNT
#	Creation time:	15. 06. 2019 19:57

#	Modifying user name:	WinNT
#	Modification time:	15. 06. 2019 19:57

#	Program:	/corina/corina34_cracker 3.40 0067  02.08.2006

@<TRIPOS>MOLECULE
ASD01911498
  82   85    0    0    0
SMALL
NO_CHARGES


@<TRIPOS>ATOM
   1 C1            -0.6982     1.8354    -0.1281 C.3     
   2 C2            -0.3466     0.5868    -0.9395 C.3     
   3 C3             0.6887    -0.2422    -0.1767 C.3     
   4 C4             0.3852    -0.1839     1.3217 C.3     
   5 O5            -1.5249    -0.1949    -1.1453 O.3     
   6 C6             0.2313     1.0043    -2.2932 C.3     
   7 N7             1.3303    -1.0437     2.0466 N.3     
   8 C8             2.6881    -0.4846     2.0062 C.3     
   9 C9             3.5812    -1.2666     2.9346 C.ar    
  10 C10            3.6408    -2.6444     2.8387 C.ar    
  11 C11            4.4599    -3.3617     3.6903 C.ar    
  12 C12            5.2199    -2.7013     4.6375 C.ar    
  13 C13            5.1610    -1.3234     4.7328 C.ar    
  14 C14            4.3451    -0.6058     3.8783 C.ar    
  15 C15            0.8905    -1.2588     3.4316 C.3     
  16 C16            1.6892    -2.3806     4.0438 C.ar    
  17 C17            2.5455    -2.1241     5.0982 C.ar    
  18 C18            3.2781    -3.1531     5.6597 C.ar    
  19 C19            3.1542    -4.4387     5.1670 C.ar    
  20 C20            2.2973    -4.6954     4.1131 C.ar    
  21 C21            1.5614    -3.6671     3.5545 C.ar    
  22 O22            0.6337    -1.5991    -0.6215 O.3     
  23 Si23           1.8867    -2.0380    -1.5689 Si      
  24 C24            3.4869    -1.7995    -0.6352 C.ar    
  25 C25            4.0150    -2.8386     0.1079 C.ar    
  26 C26            5.1991    -2.6621     0.7989 C.ar    
  27 C27            5.8554    -1.4466     0.7465 C.ar    
  28 C28            5.3277    -0.4077     0.0028 C.ar    
  29 C29            4.1458    -0.5856    -0.6918 C.ar    
  30 C30            1.7065    -3.8348    -2.0468 C.ar    
  31 C31            2.3539    -4.8129    -1.3153 C.ar    
  32 C32            2.2206    -6.1425    -1.6689 C.ar    
  33 C33            1.4395    -6.4942    -2.7538 C.ar    
  34 C34            0.7912    -5.5163    -3.4848 C.ar    
  35 C35            0.9211    -4.1869    -3.1285 C.ar    
  36 C36            1.9016    -0.9852    -3.1058 C.3     
  37 C37            2.2239     0.4623    -2.7293 C.3     
  38 C38            2.9651    -1.5094    -4.0728 C.3     
  39 C39            0.5282    -1.0438    -3.7776 C.3     
  40 H40            0.2006     2.4318     0.0288 H       
  41 H41           -1.4357     2.4261    -0.6715 H       
  42 H42           -1.1099     1.5380     0.8363 H       
  43 H43            1.6845     0.1607    -0.3617 H       
  44 H44            0.4852     0.8431     1.6730 H       
  45 H45           -0.6325    -0.5314     1.5000 H       
  46 H46           -2.2258     0.2685    -1.6240 H       
  47 H47            1.0153     1.7460    -2.1404 H       
  48 H48            0.6496     0.1314    -2.7945 H       
  49 H49           -0.5592     1.4329    -2.9092 H       
  50 H50            3.0768    -0.5473     0.9897 H       
  51 H51            2.6611     0.5585     2.3211 H       
  52 H52            3.0470    -3.1604     2.0987 H       
  53 H53            4.5059    -4.4381     3.6159 H       
  54 H54            5.8593    -3.2617     5.3034 H       
  55 H55            5.7545    -0.8075     5.4730 H       
  56 H56            4.3019     0.4710     3.9503 H       
  57 H57            1.0449    -0.3464     4.0077 H       
  58 H58           -0.1678    -1.5194     3.4405 H       
  59 H59            2.6423    -1.1197     5.4832 H       
  60 H60            3.9476    -2.9525     6.4831 H       
  61 H61            3.7272    -5.2425     5.6052 H       
  62 H62            2.2008    -5.6997     3.7279 H       
  63 H63            0.8891    -3.8683     2.7335 H       
  64 H64            3.5023    -3.7883     0.1488 H       
  65 H65            5.6114    -3.4738     1.3800 H       
  66 H66            6.7802    -1.3085     1.2870 H       
  67 H67            5.8402     0.5421    -0.0379 H       
  68 H68            3.7354     0.2249    -1.2758 H       
  69 H69            2.9643    -4.5381    -0.4677 H       
  70 H70            2.7271    -6.9066    -1.0978 H       
  71 H71            1.3359    -7.5330    -3.0305 H       
  72 H72            0.1812    -5.7910    -4.3326 H       
  73 H73            0.4117    -3.4232    -3.6973 H       
  74 H74            3.2889     0.5538    -2.5161 H       
  75 H75            1.9613     1.1203    -3.5577 H       
  76 H76            1.6509     0.7441    -1.8459 H       
  77 H77            2.7356    -2.5407    -4.3411 H       
  78 H78            2.9739    -0.8934    -4.9720 H       
  79 H79            3.9436    -1.4677    -3.5942 H       
  80 H80           -0.2240    -0.6351    -3.1029 H       
  81 H81            0.5481    -0.4585    -4.6969 H       
  82 H82            0.2821    -2.0795    -4.0116 H       
@<TRIPOS>BOND
   1    1    2 1
   2    1   40 1
   3    1   41 1
   4    1   42 1
   5    2    3 1
   6    2    5 1
   7    2    6 1
   8    3    4 1
   9    3   22 1
  10    3   43 1
  11    4    7 1
  12    4   44 1
  13    4   45 1
  14    5   46 1
  15    6   47 1
  16    6   48 1
  17    6   49 1
  18    7    8 1
  19    7   15 1
  20    8    9 1
  21    8   50 1
  22    8   51 1
  23    9   10 ar
  24    9   14 ar
  25   10   11 ar
  26   10   52 1
  27   11   12 ar
  28   11   53 1
  29   12   13 ar
  30   12   54 1
  31   13   14 ar
  32   13   55 1
  33   14   56 1
  34   15   16 1
  35   15   57 1
  36   15   58 1
  37   16   17 ar
  38   16   21 ar
  39   17   18 ar
  40   17   59 1
  41   18   19 ar
  42   18   60 1
  43   19   20 ar
  44   19   61 1
  45   20   21 ar
  46   20   62 1
  47   21   63 1
  48   22   23 1
  49   23   24 1
  50   23   30 1
  51   23   36 1
  52   24   25 ar
  53   24   29 ar
  54   25   26 ar
  55   25   64 1
  56   26   27 ar
  57   26   65 1
  58   27   28 ar
  59   27   66 1
  60   28   29 ar
  61   28   67 1
  62   29   68 1
  63   30   31 ar
  64   30   35 ar
  65   31   32 ar
  66   31   69 1
  67   32   33 ar
  68   32   70 1
  69   33   34 ar
  70   33   71 1
  71   34   35 ar
  72   34   72 1
  73   35   73 1
  74   36   37 1
  75   36   39 1
  76   36   38 1
  77   37   74 1
  78   37   75 1
  79   37   76 1
  80   38   77 1
  81   38   78 1
  82   38   79 1
  83   39   80 1
  84   39   81 1
  85   39   82 1

#	End of record

