#	Name: ASD05143254
#	Creating user name:	WinNT
#	Creation time:	15. 06. 2019 20:57

#	Modifying user name:	WinNT
#	Modification time:	15. 06. 2019 20:57

#	Program:	/corina/corina34_cracker 3.40 0067  02.08.2006

@<TRIPOS>MOLECULE
ASD05143254
  44   46    0    0    0
SMALL
NO_CHARGES


@<TRIPOS>ATOM
   1 C1            -0.2462     1.4567     0.0971 C.2     
   2 N2            -0.0161     0.2020    -0.2360 N.2     
   3 S3            -1.5415    -0.5437    -0.3022 S.3     
   4 C4            -2.4142     0.8787     0.1241 C.2     
   5 N5            -1.5013     1.8104     0.2907 N.2     
   6 N6            -3.7830     1.0114     0.2659 N.pl3   
   7 C7            -4.3230     2.2066     0.7510 C.ar    
   8 C8            -5.6212     2.5699     0.4162 C.ar    
   9 C9            -6.1522     3.7506     0.8971 C.ar    
  10 C10           -5.3920     4.5717     1.7113 C.ar    
  11 C11           -4.0982     4.2124     2.0461 C.ar    
  12 C12           -3.5643     3.0298     1.5731 C.ar    
  13 C13            1.2019    -0.3805    -0.4793 C.ar    
  14 C14            1.6053    -1.4956     0.2572 C.ar    
  15 C15            2.0409     0.1359    -1.4682 C.ar    
  16 C16            3.2643    -0.4549    -1.7080 C.ar    
  17 C17            3.6602    -1.5568    -0.9709 C.ar    
  18 C18            2.8312    -2.0768     0.0072 C.ar    
  19 C19            0.8614     2.4282     0.2536 C.ar    
  20 C20            0.6639     3.7719    -0.0631 C.ar    
  21 C21            2.1038     2.0036     0.7236 C.ar    
  22 C22            3.1315     2.9132     0.8671 C.ar    
  23 C23            2.9311     4.2439     0.5464 C.ar    
  24 C24            1.6993     4.6720     0.0847 C.ar    
  25 C25            4.9978    -2.1973    -1.2388 C.3     
  26 Cl26          -6.0625     6.0555     2.3135 Cl      
  27 H27           -4.3688     0.2754     0.0290 H       
  28 H28           -6.2147     1.9298    -0.2198 H       
  29 H29           -7.1615     4.0336     0.6371 H       
  30 H30           -3.5069     4.8554     2.6811 H       
  31 H31           -2.5546     2.7497     1.8349 H       
  32 H32            0.9592    -1.9023     1.0211 H       
  33 H33            1.7328     0.9958    -2.0445 H       
  34 H34            3.9142    -0.0566    -2.4731 H       
  35 H35            3.1462    -2.9371     0.5791 H       
  36 H36           -0.2973     4.1072    -0.4236 H       
  37 H37            2.2612     0.9652     0.9750 H       
  38 H38            4.0942     2.5856     1.2310 H       
  39 H39            3.7383     4.9522     0.6611 H       
  40 H40            1.5488     5.7121    -0.1642 H       
  41 H41            5.7563    -1.7311    -0.6099 H       
  42 H42            4.9426    -3.2621    -1.0126 H       
  43 H43            5.2620    -2.0618    -2.2876 H       
  44 Br44          10.7563    11.0555     7.6811 Br      
@<TRIPOS>BOND
   1    1    2 2
   2    1   19 1
   3    1    5 1
   4    2    3 1
   5    2   13 1
   6    3    4 1
   7    4    5 2
   8    4    6 1
   9    6    7 1
  10    6   27 1
  11    7    8 ar
  12    7   12 ar
  13    8    9 ar
  14    8   28 1
  15    9   10 ar
  16    9   29 1
  17   10   11 ar
  18   10   26 1
  19   11   12 ar
  20   11   30 1
  21   12   31 1
  22   13   14 ar
  23   13   15 ar
  24   14   18 ar
  25   14   32 1
  26   15   16 ar
  27   15   33 1
  28   16   17 ar
  29   16   34 1
  30   17   18 ar
  31   17   25 1
  32   18   35 1
  33   19   20 ar
  34   19   21 ar
  35   20   24 ar
  36   20   36 1
  37   21   22 ar
  38   21   37 1
  39   22   23 ar
  40   22   38 1
  41   23   24 ar
  42   23   39 1
  43   24   40 1
  44   25   41 1
  45   25   42 1
  46   25   43 1

#	End of record

