#	Name: ASD04840003
#	Creating user name:	WinNT
#	Creation time:	15. 06. 2019 20:52

#	Modifying user name:	WinNT
#	Modification time:	15. 06. 2019 20:52

#	Program:	/corina/corina34_cracker 3.40 0067  02.08.2006

@<TRIPOS>MOLECULE
ASD04840003
  25   26    0    0    0
SMALL
NO_CHARGES


@<TRIPOS>ATOM
   1 C1            -0.0168     1.3874     0.0097 C.ar    
   2 C2             0.0021    -0.0041     0.0020 C.ar    
   3 C3             1.2028    -0.6913    -0.0127 C.ar    
   4 C4             2.3999     0.0123    -0.0203 C.ar    
   5 C5             2.3714     1.4173    -0.0129 C.ar    
   6 C6             1.1532     2.0944     0.0023 C.ar    
   7 O7             3.6950    -0.3620    -0.0343 O.3     
   8 C8             4.5046     0.7122    -0.0364 C.2     
   9 C9             3.7783     1.8377    -0.0240 C.2     
  10 C10            4.3003     3.2514    -0.0227 C.3     
  11 C11            4.3717     3.7593     1.3944 C.2     
  12 O12            4.8111     5.0036     1.6401 O.3     
  13 O13            4.0335     3.0463     2.3094 O.2     
  14 O14           -1.1691    -0.6939     0.0095 O.3     
  15 C15           -2.3742     0.0739     0.0251 C.3     
  16 H16           -0.9610     1.9117     0.0170 H       
  17 H17            1.2089    -1.7712    -0.0178 H       
  18 H18            1.1336     3.1743     0.0076 H       
  19 H19            5.5838     0.6729    -0.0464 H       
  20 H20            5.2957     3.2717    -0.4665 H       
  21 H21            3.6308     3.8865    -0.6029 H       
  22 H22            4.8392     5.2847     2.5649 H       
  23 H23           -2.3960     0.6977     0.9187 H       
  24 H24           -2.4130     0.7072    -0.8612 H       
  25 H25           -3.2328    -0.5976     0.0297 H       
@<TRIPOS>BOND
   1    1    2 ar
   2    1    6 ar
   3    1   16 1
   4    2    3 ar
   5    2   14 1
   6    3    4 ar
   7    3   17 1
   8    4    5 ar
   9    4    7 1
  10    5    6 ar
  11    5    9 1
  12    6   18 1
  13    7    8 1
  14    8    9 2
  15    8   19 1
  16    9   10 1
  17   10   11 1
  18   10   20 1
  19   10   21 1
  20   11   12 1
  21   11   13 2
  22   12   22 1
  23   14   15 1
  24   15   23 1
  25   15   24 1
  26   15   25 1

#	End of record

