#	Name: ASD04430083
#	Creating user name:	WinNT
#	Creation time:	15. 06. 2019 20:49

#	Modifying user name:	WinNT
#	Modification time:	15. 06. 2019 20:49

#	Program:	/corina/corina34_cracker 3.40 0067  02.08.2006

@<TRIPOS>MOLECULE
ASD04430083
  41   44    0    0    0
SMALL
NO_CHARGES


@<TRIPOS>ATOM
   1 N1             0.5039     1.7719    -0.5618 N.am    
   2 C2             0.3765     0.4300    -0.4056 C.2     
   3 N3             1.3954    -0.3755    -0.3319 N.2     
   4 C4             2.6585     0.0709    -0.4067 C.2     
   5 C5             2.8903     1.4461    -0.5691 C.2     
   6 C6             1.7316     2.3353    -0.6493 C.2     
   7 N7             3.8810    -0.5260    -0.3613 N.pl3   
   8 N8             4.8596     0.4673    -0.4939 N.2     
   9 C9             4.2846     1.6322    -0.6169 C.2     
  10 O10            1.8665     3.5379    -0.7901 O.2     
  11 C11           -1.0095    -0.1542    -0.3126 C.3     
  12 C12           -0.9130    -1.6714    -0.1405 C.3     
  13 C13            4.1193    -1.8976    -0.2081 C.ar    
  14 C14            3.4177    -2.8159    -0.9778 C.ar    
  15 C15            3.6555    -4.1679    -0.8248 C.ar    
  16 C16            4.5906    -4.6073     0.0940 C.ar    
  17 C17            5.2911    -3.6951     0.8622 C.ar    
  18 C18            5.0622    -2.3419     0.7099 C.ar    
  19 C19           -0.2911    -2.0112     1.1940 C.2     
  20 C20           -0.9495    -2.9681     1.7894 C.2     
  21 C21           -2.1205    -3.4260     0.9512 C.3     
  22 C22           -2.3255    -2.2984    -0.0869 C.3     
  23 C23            5.8259    -1.3487     1.5474 C.3     
  24 H24           -0.2882     2.3293    -0.6149 H       
  25 H25            4.7922     2.5781    -0.7356 H       
  26 H26           -1.5286     0.2764     0.5437 H       
  27 H27           -1.5618     0.0737    -1.2243 H       
  28 H28           -0.3322    -2.1087    -0.9525 H       
  29 H29            2.6866    -2.4734    -1.6952 H       
  30 H30            3.1100    -4.8827    -1.4232 H       
  31 H31            4.7742    -5.6650     0.2123 H       
  32 H32            6.0207    -4.0414     1.5793 H       
  33 H33            0.5837    -1.5263     1.6015 H       
  34 H34           -0.6912    -3.3789     2.7542 H       
  35 H35           -1.8848    -4.3650     0.4504 H       
  36 H36           -3.0102    -3.5380     1.5709 H       
  37 H37           -3.0620    -1.5745     0.2621 H       
  38 H38           -2.6096    -2.7065    -1.0569 H       
  39 H39            6.6921    -0.9930     0.9895 H       
  40 H40            5.1793    -0.5056     1.7909 H       
  41 H41            6.1586    -1.8291     2.4675 H       
@<TRIPOS>BOND
   1    1    2 1
   2    1    6 am
   3    1   24 1
   4    2    3 2
   5    2   11 1
   6    3    4 1
   7    4    5 2
   8    4    7 1
   9    5    6 1
  10    5    9 1
  11    6   10 2
  12    7    8 1
  13    7   13 1
  14    8    9 2
  15    9   25 1
  16   11   12 1
  17   11   26 1
  18   11   27 1
  19   12   19 1
  20   12   22 1
  21   12   28 1
  22   13   14 ar
  23   13   18 ar
  24   14   15 ar
  25   14   29 1
  26   15   16 ar
  27   15   30 1
  28   16   17 ar
  29   16   31 1
  30   17   18 ar
  31   17   32 1
  32   18   23 1
  33   19   20 2
  34   19   33 1
  35   20   21 1
  36   20   34 1
  37   21   22 1
  38   21   35 1
  39   21   36 1
  40   22   37 1
  41   22   38 1
  42   23   39 1
  43   23   40 1
  44   23   41 1

#	End of record

