#	Name: ASD02039152
#	Creating user name:	WinNT
#	Creation time:	15. 06. 2019 20:17

#	Modifying user name:	WinNT
#	Modification time:	15. 06. 2019 20:17

#	Program:	/corina/corina34_cracker 3.40 0067  02.08.2006

@<TRIPOS>MOLECULE
ASD02039152
  43   46    0    0    0
SMALL
NO_CHARGES


@<TRIPOS>ATOM
   1 N1             0.0021     1.2625     0.3695 N.2     
   2 C2             0.0063    -0.0135     0.0890 C.2     
   3 N3             1.2922    -0.3755    -0.1075 N.2     
   4 C4             1.9960     0.7158     0.0679 C.2     
   5 O5             1.1352     1.6953     0.3613 O.3     
   6 C6             3.4938     0.8425    -0.0397 C.3     
   7 O7             3.8488     1.1696    -1.3847 O.3     
   8 C8             5.1728     1.3209    -1.6543 C.ar    
   9 N9            -1.1049    -0.8433     0.0088 N.pl3   
  10 C10           -2.3914    -0.3043     0.1299 C.ar    
  11 C11           -2.6369     1.0036    -0.2675 C.ar    
  12 C12           -3.9060     1.5351    -0.1479 C.ar    
  13 C13           -4.9359     0.7631     0.3685 C.ar    
  14 C14           -4.6921    -0.5441     0.7661 C.ar    
  15 C15           -3.4237    -1.0789     0.6420 C.ar    
  16 C16            6.1102     1.1560    -0.6376 C.ar    
  17 C17            7.4558     1.3049    -0.8924 C.ar    
  18 C18            7.8889     1.6229    -2.1751 C.ar    
  19 C19            6.9448     1.7905    -3.2058 C.ar    
  20 C20            5.5818     1.6315    -2.9358 C.ar    
  21 N21            9.2325     1.7774    -2.4504 N.am    
  22 C22            9.6537     2.0857    -3.6893 C.2     
  23 C23            8.7477     2.2646    -4.7566 C.2     
  24 C24            7.4146     2.1262    -4.5513 C.2     
  25 O25           10.8480     2.2144    -3.8960 O.2     
  26 O26           -6.1854     1.2875     0.4859 O.3     
  27 Cl27          -5.9817    -1.5096     1.4130 Cl      
  28 C28           -6.3646     2.6390     0.0579 C.3     
  29 H29            3.8409     1.6298     0.6295 H       
  30 H30            3.9594    -0.1028     0.2393 H       
  31 H31           -0.9895    -1.7962    -0.1312 H       
  32 H32           -1.8352     1.6053    -0.6697 H       
  33 H33           -4.0963     2.5525    -0.4564 H       
  34 H34           -3.2337    -2.0962     0.9509 H       
  35 H35            5.7790     0.9093     0.3603 H       
  36 H36            8.1740     1.1751    -0.0964 H       
  37 H37            4.8534     1.7586    -3.7230 H       
  38 H38            9.8824     1.6621    -1.7396 H       
  39 H39            9.1177     2.5122    -5.7405 H       
  40 H40            6.7145     2.2606    -5.3626 H       
  41 H41           -5.7164     3.2936     0.6405 H       
  42 H42           -6.1101     2.7223    -0.9987 H       
  43 H43           -7.4041     2.9321     0.2054 H       
@<TRIPOS>BOND
   1    1    2 2
   2    1    5 1
   3    2    3 1
   4    2    9 1
   5    3    4 2
   6    4    5 1
   7    4    6 1
   8    6    7 1
   9    6   29 1
  10    6   30 1
  11    7    8 1
  12    8   16 ar
  13    8   20 ar
  14    9   10 1
  15    9   31 1
  16   10   11 ar
  17   10   15 ar
  18   11   12 ar
  19   11   32 1
  20   12   13 ar
  21   12   33 1
  22   13   14 ar
  23   13   26 1
  24   14   15 ar
  25   14   27 1
  26   15   34 1
  27   16   17 ar
  28   16   35 1
  29   17   18 ar
  30   17   36 1
  31   18   19 ar
  32   18   21 1
  33   19   20 ar
  34   19   24 1
  35   20   37 1
  36   21   22 am
  37   21   38 1
  38   22   23 1
  39   22   25 2
  40   23   24 2
  41   23   39 1
  42   24   40 1
  43   26   28 1
  44   28   41 1
  45   28   42 1
  46   28   43 1

#	End of record

