#	Name: ASD03090686
#	Creating user name:	WinNT
#	Creation time:	15. 06. 2019 20:29

#	Modifying user name:	WinNT
#	Modification time:	15. 06. 2019 20:29

#	Program:	/corina/corina34_cracker 3.40 0067  02.08.2006

@<TRIPOS>MOLECULE
ASD03090686
  27   28    0    0    0
SMALL
NO_CHARGES


@<TRIPOS>ATOM
   1 N1            -0.0162     1.3436     0.0094 N.am    
   2 C2             0.0559     0.0126     0.2092 C.2     
   3 O3             1.1398    -0.5295     0.3073 O.2     
   4 N4            -1.0734    -0.7174     0.3000 N.am    
   5 S5            -2.3353    -3.1537     0.6434 S.3     
   6 C6            -0.9989    -2.0907     0.5061 C.2     
   7 N7             0.0954    -2.7800     0.6264 N.2     
   8 N8            -0.0130    -4.0243     0.8104 N.2     
   9 C9            -1.2165    -4.4998     0.8621 C.2     
  10 C10           -1.5934    -5.9439     1.0711 C.3     
  11 F11           -0.4398    -6.6959     1.3181 F       
  12 F12           -2.4598    -6.0461     2.1648 F       
  13 F13           -2.2305    -6.4302    -0.0756 F       
  14 C14            1.1525     2.1169     0.0124 C.ar    
  15 C15            2.3305     1.5971    -0.5068 C.ar    
  16 C16            3.4817     2.3599    -0.5040 C.ar    
  17 C17            3.4613     3.6450     0.0177 C.ar    
  18 C18            2.2846     4.1649     0.5366 C.ar    
  19 C19            1.1314     3.4053     0.5293 C.ar    
  20 O20            4.5954     4.3952     0.0210 O.3     
  21 H21           -0.8767     1.7656    -0.1403 H       
  22 H22           -1.9381    -0.2849     0.2217 H       
  23 H23            2.3467     0.5963    -0.9125 H       
  24 H24            4.3982     1.9556    -0.9079 H       
  25 H25            2.2694     5.1656     0.9427 H       
  26 H26            0.2143     3.8117     0.9296 H       
  27 H27            4.7140     4.9322    -0.7744 H       
@<TRIPOS>BOND
   1    1    2 am
   2    1   14 1
   3    1   21 1
   4    2    3 2
   5    2    4 am
   6    4    6 1
   7    4   22 1
   8    5    6 1
   9    5    9 1
  10    6    7 2
  11    7    8 1
  12    8    9 2
  13    9   10 1
  14   10   11 1
  15   10   12 1
  16   10   13 1
  17   14   15 ar
  18   14   19 ar
  19   15   16 ar
  20   15   23 1
  21   16   17 ar
  22   16   24 1
  23   17   18 ar
  24   17   20 1
  25   18   19 ar
  26   18   25 1
  27   19   26 1
  28   20   27 1

#	End of record

