#	Name: ASD01914241
#	Creating user name:	WinNT
#	Creation time:	15. 06. 2019 20:03

#	Modifying user name:	WinNT
#	Modification time:	15. 06. 2019 20:03

#	Program:	/corina/corina34_cracker 3.40 0067  02.08.2006

@<TRIPOS>MOLECULE
ASD01914241
  32   34    0    0    0
SMALL
NO_CHARGES


@<TRIPOS>ATOM
   1 C1            -0.0172     1.4137     0.0098 C.2     
   2 C2             0.0021    -0.0041     0.0020 C.2     
   3 C3             1.1925    -0.6517    -0.0128 C.2     
   4 C4             2.3935     0.0870    -0.0203 C.2     
   5 C5             2.3702     1.4313    -0.0124 C.2     
   6 N6             1.1760     2.1121     0.0022 N.am    
   7 N7            -0.4488     3.5658     0.0233 N.am    
   8 N8            -1.0043     2.2789     0.0186 N.2     
   9 C9             0.8931     3.4303     0.0120 C.2     
  10 O10            1.7060     4.3386     0.0094 O.2     
  11 C11           -1.1911     4.8288     0.0325 C.3     
  12 C12           -1.4551     5.2757    -1.4067 C.3     
  13 C13           -2.2009     6.5447    -1.3975 C.1     
  14 C14           -2.7958     7.5568    -1.3901 C.1     
  15 C15           -3.5213     8.7914    -1.3811 C.ar    
  16 C16           -3.8768     9.3943    -2.5882 C.ar    
  17 C17           -4.5777    10.5869    -2.5627 C.ar    
  18 C18           -4.9012    11.1396    -1.3311 C.ar    
  19 C19           -4.5176    10.4887    -0.1732 C.ar    
  20 N20           -3.8553     9.3509    -0.2239 N.ar    
  21 H21           -0.9225    -0.5622     0.0082 H       
  22 H22            1.2211    -1.7313    -0.0185 H       
  23 H23            3.3407    -0.4317    -0.0322 H       
  24 H24            3.2992     1.9820    -0.0180 H       
  25 H25           -2.1404     4.6885     0.5494 H       
  26 H26           -0.6059     5.5904     0.5479 H       
  27 H27           -0.5058     5.4159    -1.9236 H       
  28 H28           -2.0404     4.5141    -1.9221 H       
  29 H29           -3.6084     8.9368    -3.5289 H       
  30 H30           -4.8663    11.0772    -3.4807 H       
  31 H31           -5.4474    12.0697    -1.2779 H       
  32 H32           -4.7678    10.9168     0.7862 H       
@<TRIPOS>BOND
   1    1    2 1
   2    1    6 1
   3    1    8 2
   4    2    3 2
   5    2   21 1
   6    3    4 1
   7    3   22 1
   8    4    5 2
   9    4   23 1
  10    5    6 1
  11    5   24 1
  12    6    9 am
  13    7    8 1
  14    7    9 am
  15    7   11 1
  16    9   10 2
  17   11   12 1
  18   11   25 1
  19   11   26 1
  20   12   13 1
  21   12   27 1
  22   12   28 1
  23   13   14 3
  24   14   15 1
  25   15   16 ar
  26   15   20 ar
  27   16   17 ar
  28   16   29 1
  29   17   18 ar
  30   17   30 1
  31   18   19 ar
  32   18   31 1
  33   19   20 ar
  34   19   32 1

#	End of record

