#	Name: ASD05740006
#	Creating user name:	WinNT
#	Creation time:	15. 06. 2019 21:02

#	Modifying user name:	WinNT
#	Modification time:	15. 06. 2019 21:02

#	Program:	/corina/corina34_cracker 3.40 0067  02.08.2006

@<TRIPOS>MOLECULE
ASD05740006
  55   58    0    0    0
SMALL
NO_CHARGES


@<TRIPOS>ATOM
   1 C1             1.3926     1.3689     1.1794 C.ar    
   2 C2             1.0069     3.3451     0.0169 C.ar    
   3 C3             1.9943     5.5248    -0.0542 C.ar    
   4 C4             0.7204     6.0961     0.0453 C.ar    
   5 C5            -0.4170     5.2715     0.1257 C.ar    
   6 C6            -0.2616     3.8935     0.1105 C.ar    
   7 C7             0.5455     7.5500     0.0626 C.2     
   8 C8            -0.7163     8.0434     0.1613 C.2     
   9 C9            -1.8110     7.1583     0.2435 C.2     
  10 O10           -1.6441     5.8266     0.2222 O.3     
  11 C11           -0.9456     9.5327     0.1835 C.3     
  12 C12           -1.2528    10.0144    -1.2110 C.ar    
  13 C13           -0.2475    10.5201    -2.0255 C.ar    
  14 O14           -2.9371     7.6139     0.3321 O.2     
  15 C15           -2.7863    10.4123    -3.0061 C.ar    
  16 N16           -1.8009    10.8922    -3.7477 N.ar    
  17 C17           -0.5614    10.9527    -3.2976 C.ar    
  18 O18            1.1577     1.9959     0.0017 O.3     
  19 N19           -4.0781    10.3668    -3.5211 N.am    
  20 S20           -4.3772    10.9117    -5.0560 S.o2    
  21 O21           -5.7775    10.7370    -5.2232 O.2     
  22 O22           -3.7913    12.2058    -5.0888 O.2     
  23 C23            1.7330     8.4736    -0.0261 C.3     
  24 N24            1.4585     0.0475     1.2053 N.ar    
  25 C25            1.6868    -0.5964     2.3381 C.ar    
  26 C26            1.8577     0.1303     3.5059 C.ar    
  27 C27            1.7824     1.5128     3.4420 C.ar    
  28 N28            1.5561     2.0931     2.2748 N.ar    
  29 C29           -3.4609     9.7707    -6.1280 C.3     
  30 C30           -3.6602    10.1739    -7.5904 C.3     
  31 C31           -2.5422     9.9577    -1.7117 C.ar    
  32 F32           -3.5496     9.4681    -0.9562 F       
  33 C33            2.1293     4.1669    -0.0677 C.ar    
  34 C34            3.5010     3.5520    -0.1743 C.3     
  35 H35            2.8680     6.1566    -0.1163 H       
  36 H36           -1.1269     3.2501     0.1712 H       
  37 H37           -1.7850     9.7614     0.8400 H       
  38 H38           -0.0497    10.0328     0.5515 H       
  39 H39            0.7696    10.5745    -1.6664 H       
  40 H40            0.2176    11.3464    -3.9336 H       
  41 H41           -4.8034    10.0159    -2.9810 H       
  42 H42            2.6471     7.8842    -0.0979 H       
  43 H43            1.6372     9.1046    -0.9097 H       
  44 H44            1.7735     9.0999     0.8650 H       
  45 H45            1.7391    -1.6751     2.3529 H       
  46 H46            2.0451    -0.3695     4.4447 H       
  47 H47            1.9108     2.1091     4.3332 H       
  48 H48           -2.4002     9.8127    -5.8808 H       
  49 H49           -3.8292     8.7559    -5.9775 H       
  50 H50           -3.2919    11.1887    -7.7409 H       
  51 H51           -3.1096     9.4883    -8.2345 H       
  52 H52           -4.7209    10.1319    -7.8376 H       
  53 H53            3.7531     3.4058    -1.2246 H       
  54 H54            4.2333     4.2153     0.2862 H       
  55 H55            3.5089     2.5902     0.3386 H       
@<TRIPOS>BOND
   1    1   24 ar
   2    1   18 1
   3    1   28 ar
   4    2   18 1
   5    2   33 ar
   6    2    6 ar
   7    3    4 ar
   8    3   33 ar
   9    3   35 1
  10    4    5 ar
  11    4    7 1
  12    5    6 ar
  13    5   10 1
  14    6   36 1
  15    7    8 2
  16    7   23 1
  17    8    9 1
  18    8   11 1
  19    9   10 1
  20    9   14 2
  21   11   12 1
  22   11   37 1
  23   11   38 1
  24   12   13 ar
  25   12   31 ar
  26   13   17 ar
  27   13   39 1
  28   15   16 ar
  29   15   19 1
  30   15   31 ar
  31   16   17 ar
  32   17   40 1
  33   19   20 am
  34   19   41 1
  35   20   21 2
  36   20   22 2
  37   20   29 1
  38   23   42 1
  39   23   43 1
  40   23   44 1
  41   24   25 ar
  42   25   26 ar
  43   25   45 1
  44   26   27 ar
  45   26   46 1
  46   27   28 ar
  47   27   47 1
  48   29   30 1
  49   29   48 1
  50   29   49 1
  51   30   50 1
  52   30   51 1
  53   30   52 1
  54   31   32 1
  55   33   34 1
  56   34   53 1
  57   34   54 1
  58   34   55 1

#	End of record

