#	Name: ASD05790075
#	Creating user name:	WinNT
#	Creation time:	15. 06. 2019 21:03

#	Modifying user name:	WinNT
#	Modification time:	15. 06. 2019 21:03

#	Program:	/corina/corina34_cracker 3.40 0067  02.08.2006

@<TRIPOS>MOLECULE
ASD05790075
  90   96    0    0    0
SMALL
NO_CHARGES


@<TRIPOS>ATOM
   1 C1             1.4682    -1.2626    -0.1802 C.3     
   2 C2             1.8316    -2.6999    -0.4887 C.2     
   3 C3             2.7400    -2.9650    -1.6692 C.3     
   4 C4             3.9933    -2.0874    -1.5474 C.3     
   5 C5             3.5747    -0.6185    -1.3700 C.3     
   6 C6             2.7632    -0.4493    -0.0901 C.3     
   7 C7             4.8230    -2.2516    -2.8253 C.3     
   8 C8             4.0419    -1.7526    -4.0527 C.3     
   9 C9             3.6939    -0.2968    -3.8151 C.3     
  10 C10            2.7572    -0.2341    -2.5818 C.3     
  11 C11            2.8226     0.3708    -4.8875 C.3     
  12 C12            2.1244     1.5101    -4.1504 C.2     
  13 C13            2.2196     1.1876    -2.6540 C.3     
  14 C14            3.7254     0.9128    -5.9840 C.3     
  15 C15            2.9970     1.5781    -7.1033 C.3     
  16 C16            2.5579     2.9961    -6.8329 C.3     
  17 C17            1.2976     3.0533    -5.9963 C.3     
  18 C18            1.5140     2.5148    -4.6287 C.2     
  19 C19            2.3120     3.7258    -8.1833 C.3     
  20 C20            3.2972     4.8963    -8.1346 C.3     
  21 C21            4.3909     4.3032    -7.2007 C.3     
  22 O22            3.6267     3.7151    -6.1595 O.3     
  23 N23            3.9795     5.2232    -9.3804 N.am    
  24 C24            5.0745     6.2107    -9.2736 C.3     
  25 C25            6.0725     5.8060    -8.1913 C.3     
  26 C26            5.3648     5.4118    -6.8834 C.3     
  27 C27            4.8239     0.2622    -1.3012 C.3     
  28 C28            0.8567     3.3548    -3.5641 C.3     
  29 C29            7.0129     6.9809    -7.9153 C.3     
  30 C30            2.6287     2.8023    -9.3613 C.3     
  31 O31            1.4095    -3.6071     0.1874 O.2     
  32 C32            6.3890     5.0901   -15.5755 C.ar    
  33 C33            7.2800     4.0348   -15.6348 C.ar    
  34 C34            7.1379     2.9612   -14.7758 C.ar    
  35 C35            6.1049     2.9427   -13.8574 C.ar    
  36 C36            5.2139     3.9979   -13.7981 C.ar    
  37 C37            5.3560     5.0716   -14.6571 C.ar    
  38 C38            4.0877     3.9778   -12.7970 C.3     
  39 O39            4.5285     4.5975   -11.5601 O.3     
  40 C40            3.6344     4.6604   -10.5554 C.2     
  41 O41            2.5163     4.2097   -10.7080 O.2     
  42 H42            0.8383    -0.8639    -0.9754 H       
  43 H43            0.9365    -1.2137     0.7701 H       
  44 H44            3.0304    -4.0156    -1.6768 H       
  45 H45            2.2154    -2.7244    -2.5939 H       
  46 H46            4.5789    -2.4061    -0.6851 H       
  47 H47            2.5199     0.6043     0.0475 H       
  48 H48            3.3507    -0.7974     0.7595 H       
  49 H49            5.7453    -1.6786    -2.7301 H       
  50 H50            5.0685    -3.3049    -2.9605 H       
  51 H51            4.6596    -1.8440    -4.9461 H       
  52 H52            3.1291    -2.3361    -4.1722 H       
  53 H53            4.5990     0.2831    -3.6343 H       
  54 H54            1.9357    -0.9390    -2.7089 H       
  55 H55            2.0946    -0.3339    -5.2893 H       
  56 H56            1.2337     1.2423    -2.1924 H       
  57 H57            2.9064     1.8765    -2.1622 H       
  58 H58            4.4136     1.6332    -5.5418 H       
  59 H59            4.3085     0.0873    -6.3923 H       
  60 H60            3.6448     1.5811    -7.9799 H       
  61 H61            2.1134     0.9845    -7.3378 H       
  62 H62            0.9686     4.0897    -5.9213 H       
  63 H63            0.5189     2.4703    -6.4879 H       
  64 H64            1.2852     4.0863    -8.2441 H       
  65 H65            2.8347     5.7777    -7.6904 H       
  66 H66            4.9253     3.5187    -7.7365 H       
  67 H67            5.5916     6.2768   -10.2308 H       
  68 H68            4.6543     7.1857    -9.0266 H       
  69 H69            6.6590     4.9590    -8.5474 H       
  70 H70            4.8278     6.2708    -6.4810 H       
  71 H71            6.0989     5.0616    -6.1577 H       
  72 H72            5.4648     0.0513    -2.1573 H       
  73 H73            4.5300     1.3117    -1.3172 H       
  74 H74            5.3670     0.0510    -0.3800 H       
  75 H75            0.3493     4.1997    -4.0296 H       
  76 H76            0.1310     2.7498    -3.0204 H       
  77 H77            1.6144     3.7224    -2.8721 H       
  78 H78            6.4324     7.8392    -7.5771 H       
  79 H79            7.7289     6.6995    -7.1431 H       
  80 H80            7.5474     7.2409    -8.8290 H       
  81 H81            2.8236     1.7956    -8.9917 H       
  82 H82            1.7795     2.7805   -10.0444 H       
  83 H83            3.5085     3.1729    -9.8872 H       
  84 H84            6.5027     5.9310   -16.2436 H       
  85 H85            8.0869     4.0491   -16.3526 H       
  86 H86            7.8336     2.1364   -14.8226 H       
  87 H87            5.9935     2.1036   -13.1868 H       
  88 H88            4.6601     5.8962   -14.6106 H       
  89 H89            3.2366     4.5293   -13.1965 H       
  90 H90            3.7933     2.9466   -12.6019 H       
@<TRIPOS>BOND
   1    1    2 1
   2    1    6 1
   3    1   42 1
   4    1   43 1
   5    2    3 1
   6    2   31 2
   7    3    4 1
   8    3   44 1
   9    3   45 1
  10    4    5 1
  11    4    7 1
  12    4   46 1
  13    5    6 1
  14    5   27 1
  15    5   10 1
  16    6   47 1
  17    6   48 1
  18    7    8 1
  19    7   49 1
  20    7   50 1
  21    8    9 1
  22    8   51 1
  23    8   52 1
  24    9   10 1
  25    9   11 1
  26    9   53 1
  27   10   13 1
  28   10   54 1
  29   11   12 1
  30   11   14 1
  31   11   55 1
  32   12   13 1
  33   12   18 2
  34   13   56 1
  35   13   57 1
  36   14   15 1
  37   14   58 1
  38   14   59 1
  39   15   16 1
  40   15   60 1
  41   15   61 1
  42   16   17 1
  43   16   22 1
  44   16   19 1
  45   17   18 1
  46   17   62 1
  47   17   63 1
  48   18   28 1
  49   19   30 1
  50   19   20 1
  51   19   64 1
  52   20   21 1
  53   20   23 1
  54   20   65 1
  55   21   22 1
  56   21   26 1
  57   21   66 1
  58   23   24 1
  59   23   40 am
  60   24   25 1
  61   24   67 1
  62   24   68 1
  63   25   26 1
  64   25   29 1
  65   25   69 1
  66   26   70 1
  67   26   71 1
  68   27   72 1
  69   27   73 1
  70   27   74 1
  71   28   75 1
  72   28   76 1
  73   28   77 1
  74   29   78 1
  75   29   79 1
  76   29   80 1
  77   30   81 1
  78   30   82 1
  79   30   83 1
  80   32   33 ar
  81   32   37 ar
  82   32   84 1
  83   33   34 ar
  84   33   85 1
  85   34   35 ar
  86   34   86 1
  87   35   36 ar
  88   35   87 1
  89   36   37 ar
  90   36   38 1
  91   37   88 1
  92   38   39 1
  93   38   89 1
  94   38   90 1
  95   39   40 1
  96   40   41 2

#	End of record

