#	Name: ASD02448154
#	Creating user name:	WinNT
#	Creation time:	15. 06. 2019 20:21

#	Modifying user name:	WinNT
#	Modification time:	15. 06. 2019 20:21

#	Program:	/corina/corina34_cracker 3.40 0067  02.08.2006

@<TRIPOS>MOLECULE
ASD02448154
 101  106    0    0    0
SMALL
NO_CHARGES


@<TRIPOS>ATOM
   1 C1            -0.2034    -6.4682     3.4829 C.ar    
   2 C2             0.3212    -5.4167     2.7566 C.ar    
   3 C3             0.2194    -5.4081     1.3713 C.ar    
   4 C4            -0.4098    -6.4564     0.7170 C.ar    
   5 C5            -0.9361    -7.5118     1.4492 C.ar    
   6 C6            -0.8311    -7.5145     2.8345 C.ar    
   7 N7            -1.5710    -8.5695     0.7940 N.am    
   8 C8            -1.7375    -9.9515     1.2623 C.3     
   9 C9            -2.4792   -10.7786     0.2623 C.2     
  10 N10           -2.8454   -10.1227    -0.8479 N.am    
  11 S11           -2.3202    -8.5504    -0.6965 S.o2    
  12 O12           -2.7297   -11.9517     0.4412 O.2     
  13 O13           -3.4759    -7.7315    -0.5825 O.2     
  14 O14           -1.3014    -8.3533    -1.6673 O.2     
  15 N15            0.7518    -4.3402     0.6353 N.pl3   
  16 C16            1.6699    -4.4295    -0.3768 C.2     
  17 C17            0.4484    -3.0245     0.7897 C.2     
  18 N18            1.1383    -2.3289    -0.0704 N.2     
  19 C19            1.9024    -3.1617    -0.8061 C.2     
  20 C20            2.8323    -2.7639    -1.8915 C.ar    
  21 C21            2.9757    -1.4190    -2.2324 C.ar    
  22 C22            3.5697    -3.7319    -2.5700 C.ar    
  23 C23            4.4336    -3.3569    -3.5791 C.ar    
  24 C24            4.5688    -2.0215    -3.9176 C.ar    
  25 C25            3.8427    -1.0545    -3.2435 C.ar    
  26 C26           -1.8704    -2.2762     1.1353 C.ar    
  27 C27           -2.7605    -3.3333     1.0773 C.ar    
  28 C28           -2.2115    -1.0479     0.5983 C.ar    
  29 C29           -3.4433    -0.8709     0.0016 C.ar    
  30 C30           -4.3439    -1.9323    -0.0596 C.ar    
  31 C31           -3.9947    -3.1677     0.4822 C.ar    
  32 C32           -5.6700    -1.7479    -0.6995 C.ar    
  33 Cl33           5.6576    -1.5571    -5.1874 Cl      
  34 Cl34           2.0656    -0.2058    -1.3876 Cl      
  35 C35           -0.5265    -2.4615     1.7916 C.3     
  36 C36           -6.5706    -2.8093    -0.7607 C.ar    
  37 C37           -7.8028    -2.6320    -1.3566 C.ar    
  38 C38           -8.1444    -1.4034    -1.8924 C.ar    
  39 C39           -7.2542    -0.3463    -1.8344 C.ar    
  40 C40           -6.0214    -0.5109    -1.2362 C.ar    
  41 C41           -9.4911    -1.2160    -2.5422 C.3     
  42 C42          -10.2644    -0.1200    -1.8063 C.3     
  43 C43          -11.6766    -0.0154    -2.3856 C.3     
  44 C44          -12.4499     1.0806    -1.6497 C.3     
  45 C45          -11.7275     2.4182    -1.8225 C.3     
  46 C46           -9.2996    -0.8106    -4.0050 C.3     
  47 C47           -8.6373    -1.9584    -4.7698 C.3     
  48 C48           -8.4458    -1.5531    -6.2327 C.3     
  49 C49          -13.8621     1.1852    -2.2290 C.3     
  50 C50          -12.5333     0.7346    -0.1617 C.3     
  51 C51           -7.5553    -0.3110    -6.3053 C.3     
  52 C52           -7.7836    -2.7009    -6.9974 C.3     
  53 C53           -9.8070    -1.2419    -6.8581 C.3     
  54 H54           -0.1189    -6.4746     4.5596 H       
  55 H55            0.8108    -4.6002     3.2664 H       
  56 H56           -0.4904    -6.4517    -0.3600 H       
  57 H57           -1.2402    -8.3351     3.4051 H       
  58 H58           -0.7549   -10.3920     1.4314 H       
  59 H59           -2.2906    -9.9460     2.2015 H       
  60 H60           -3.3306   -10.4954    -1.6006 H       
  61 H61            2.1218    -5.3327    -0.7594 H       
  62 H62            3.4658    -4.7741    -2.3065 H       
  63 H63            5.0054    -4.1068    -4.1054 H       
  64 H64            3.9515    -0.0140    -3.5116 H       
  65 H65           -2.4892    -4.2902     1.4982 H       
  66 H66           -1.5126    -0.2259     0.6463 H       
  67 H67           -3.7089     0.0887    -0.4168 H       
  68 H68           -4.6889    -3.9938     0.4371 H       
  69 H69           -0.6238    -3.1505     2.6306 H       
  70 H70           -0.1623    -1.4994     2.1518 H       
  71 H71           -6.3047    -3.7691    -0.3429 H       
  72 H72           -8.5015    -3.4542    -1.4049 H       
  73 H73           -7.5259     0.6108    -2.2547 H       
  74 H74           -5.3271     0.3151    -1.1914 H       
  75 H75          -10.0507    -2.1502    -2.4943 H       
  76 H76          -10.3238    -0.3665    -0.7462 H       
  77 H77           -9.7497     0.8330    -1.9294 H       
  78 H78          -11.6172     0.2311    -3.4457 H       
  79 H79          -12.1913    -0.9684    -2.2625 H       
  80 H80          -11.6680     2.6648    -2.8826 H       
  81 H81          -12.2784     3.1991    -1.2982 H       
  82 H82          -10.7214     2.3438    -1.4098 H       
  83 H83          -10.2693    -0.5890    -4.4506 H       
  84 H84           -8.6652     0.0742    -4.0568 H       
  85 H85           -7.6676    -2.1801    -4.3243 H       
  86 H86           -9.2717    -2.8433    -4.7181 H       
  87 H87          -14.3768     0.2322    -2.1058 H       
  88 H88          -14.4130     1.9660    -1.7047 H       
  89 H89          -13.8027     1.4317    -3.2891 H       
  90 H90          -11.5272     0.6601     0.2510 H       
  91 H91          -13.0842     1.5155     0.3626 H       
  92 H92          -13.0480    -0.2183    -0.0385 H       
  93 H93           -6.5855    -0.5327    -5.8597 H       
  94 H94           -7.4188    -0.0223    -7.3474 H       
  95 H95           -8.0271     0.5067    -5.7605 H       
  96 H96           -8.4180    -3.5857    -6.9457 H       
  97 H97           -7.6471    -2.4121    -8.0396 H       
  98 H98           -6.8138    -2.9225    -6.5519 H       
  99 H99          -10.2788    -0.4242    -6.3132 H       
 100 H100          -9.6706    -0.9531    -7.9002 H       
 101 H101         -10.4414    -2.1268    -6.8063 H       
@<TRIPOS>BOND
   1    1    2 ar
   2    1    6 ar
   3    1   54 1
   4    2    3 ar
   5    2   55 1
   6    3    4 ar
   7    3   15 1
   8    4    5 ar
   9    4   56 1
  10    5    6 ar
  11    5    7 1
  12    6   57 1
  13    7    8 1
  14    7   11 am
  15    8    9 1
  16    8   58 1
  17    8   59 1
  18    9   10 am
  19    9   12 2
  20   10   11 am
  21   10   60 1
  22   11   13 2
  23   11   14 2
  24   15   16 1
  25   15   17 1
  26   16   19 2
  27   16   61 1
  28   17   18 2
  29   17   35 1
  30   18   19 1
  31   19   20 1
  32   20   21 ar
  33   20   22 ar
  34   21   34 1
  35   21   25 ar
  36   22   23 ar
  37   22   62 1
  38   23   24 ar
  39   23   63 1
  40   24   25 ar
  41   24   33 1
  42   25   64 1
  43   26   27 ar
  44   26   28 ar
  45   26   35 1
  46   27   31 ar
  47   27   65 1
  48   28   29 ar
  49   28   66 1
  50   29   30 ar
  51   29   67 1
  52   30   31 ar
  53   30   32 1
  54   31   68 1
  55   32   36 ar
  56   32   40 ar
  57   35   69 1
  58   35   70 1
  59   36   37 ar
  60   36   71 1
  61   37   38 ar
  62   37   72 1
  63   38   39 ar
  64   38   41 1
  65   39   40 ar
  66   39   73 1
  67   40   74 1
  68   41   42 1
  69   41   46 1
  70   41   75 1
  71   42   43 1
  72   42   76 1
  73   42   77 1
  74   43   44 1
  75   43   78 1
  76   43   79 1
  77   44   45 1
  78   44   49 1
  79   44   50 1
  80   45   80 1
  81   45   81 1
  82   45   82 1
  83   46   47 1
  84   46   83 1
  85   46   84 1
  86   47   48 1
  87   47   85 1
  88   47   86 1
  89   48   51 1
  90   48   52 1
  91   48   53 1
  92   49   87 1
  93   49   88 1
  94   49   89 1
  95   50   90 1
  96   50   91 1
  97   50   92 1
  98   51   93 1
  99   51   94 1
 100   51   95 1
 101   52   96 1
 102   52   97 1
 103   52   98 1
 104   53   99 1
 105   53  100 1
 106   53  101 1

#	End of record

