#	Name: ASD01900587
#	Creating user name:	WinNT
#	Creation time:	15. 06. 2019 19:52

#	Modifying user name:	WinNT
#	Modification time:	15. 06. 2019 19:52

#	Program:	/corina/corina34_cracker 3.40 0067  02.08.2006

@<TRIPOS>MOLECULE
ASD01900587
  49   52    0    0    0
SMALL
NO_CHARGES


@<TRIPOS>ATOM
   1 C1             0.9850     3.1569     0.7507 C.ar    
   2 C2             2.0487     3.6068     1.5302 C.ar    
   3 C3             3.2477     2.9129     1.4977 C.ar    
   4 C4             3.3417     1.7926     0.6865 C.ar    
   5 C5             2.2432     1.4021    -0.0622 C.ar    
   6 N6             1.1166     2.0791    -0.0127 N.ar    
   7 C7            -0.3053     3.8839     0.7789 C.2     
   8 O8            -0.4328     4.8684     1.4799 O.2     
   9 N9            -1.3378     3.4535     0.0271 N.am    
  10 C10           -2.5849     4.0804     0.1267 C.ar    
  11 C11           -2.6583     5.4515     0.3376 C.ar    
  12 C12           -3.8894     6.0698     0.4354 C.ar    
  13 C13           -5.0541     5.3200     0.3227 C.ar    
  14 C14           -4.9801     3.9503     0.1121 C.ar    
  15 C15           -3.7494     3.3328     0.0090 C.ar    
  16 C16           -8.2878     6.9730    -0.0598 C.3     
  17 C17           -8.4313     8.4772    -0.3232 C.3     
  18 N18           -8.1068     6.8025     1.3984 N.am    
  19 N19           -9.4122     9.0152     0.6321 N.am    
  20 C20           -9.1884     8.8593     2.0748 C.3     
  21 C21           -9.0201     7.3649     2.3972 C.3     
  22 C22           -6.9742     6.1167     1.5729 C.2     
  23 N23           -6.3054     5.9481     0.4225 N.am    
  24 C24           -6.9840     6.4573    -0.6273 C.2     
  25 O25           -6.5941     5.6954     2.6477 O.2     
  26 O26           -6.6234     6.4941    -1.7842 O.2     
  27 S27          -10.7651     9.7954     0.0816 S.o2    
  28 O28          -11.1202    10.6719     1.1422 O.2     
  29 O29          -10.3847    10.3014    -1.1906 O.2     
  30 C30          -12.0028     8.4818    -0.1000 C.3     
  31 Cl31          -3.9820     7.7831     0.6994 Cl      
  32 H32            1.9403     4.4842     2.1506 H       
  33 H33            4.0900     3.2376     2.0905 H       
  34 H34            4.2622     1.2299     0.6384 H       
  35 H35            2.3129     0.5298    -0.6952 H       
  36 H36           -1.2164     2.7092    -0.5830 H       
  37 H37           -1.7530     6.0337     0.4254 H       
  38 H38           -5.8853     3.3679     0.0246 H       
  39 H39           -3.6923     2.2675    -0.1593 H       
  40 H40           -9.1509     6.4178    -0.4272 H       
  41 H41           -7.4695     8.9696    -0.1802 H       
  42 H42           -8.7817     8.6409    -1.3423 H       
  43 H43           -8.2866     9.3987     2.3644 H       
  44 H44          -10.0438     9.2562     2.6215 H       
  45 H45           -9.9858     6.8625     2.3409 H       
  46 H46           -8.5971     7.2462     3.3947 H       
  47 H47          -12.1722     8.0061     0.8660 H       
  48 H48          -12.9371     8.9104    -0.4626 H       
  49 H49          -11.6430     7.7395    -0.8124 H       
@<TRIPOS>BOND
   1    1    2 ar
   2    1    6 ar
   3    1    7 1
   4    2    3 ar
   5    2   32 1
   6    3    4 ar
   7    3   33 1
   8    4    5 ar
   9    4   34 1
  10    5    6 ar
  11    5   35 1
  12    7    8 2
  13    7    9 am
  14    9   10 1
  15    9   36 1
  16   10   11 ar
  17   10   15 ar
  18   11   12 ar
  19   11   37 1
  20   12   13 ar
  21   12   31 1
  22   13   14 ar
  23   13   23 1
  24   14   15 ar
  25   14   38 1
  26   15   39 1
  27   16   17 1
  28   16   18 1
  29   16   24 1
  30   16   40 1
  31   17   19 1
  32   17   41 1
  33   17   42 1
  34   18   21 1
  35   18   22 am
  36   19   20 1
  37   19   27 am
  38   20   21 1
  39   20   43 1
  40   20   44 1
  41   21   45 1
  42   21   46 1
  43   22   23 am
  44   22   25 2
  45   23   24 am
  46   24   26 2
  47   27   28 2
  48   27   29 2
  49   27   30 1
  50   30   47 1
  51   30   48 1
  52   30   49 1

#	End of record

