#	Name: ASD03330420
#	Creating user name:	WinNT
#	Creation time:	15. 06. 2019 20:37

#	Modifying user name:	WinNT
#	Modification time:	15. 06. 2019 20:37

#	Program:	/corina/corina34_cracker 3.40 0067  02.08.2006

@<TRIPOS>MOLECULE
ASD03330420
  50   53    0    0    0
SMALL
NO_CHARGES


@<TRIPOS>ATOM
   1 C1            -0.3054     1.8617    -0.6122 C.3     
   2 N2            -0.4064     0.3988    -0.5158 N.3     
   3 C3             0.2025    -0.2561    -1.6878 C.3     
   4 C4             1.5758     0.3312    -1.8872 C.2     
   5 N5             1.9951     1.4898    -1.3002 N.pl3   
   6 C6             1.1523     2.2969    -0.4136 C.3     
   7 C7             2.6063    -0.1345    -2.6354 C.2     
   8 N8             3.6373     0.7314    -2.4993 N.2     
   9 C9             3.2759     1.7085    -1.6976 C.2     
  10 C10            4.1210     2.8538    -1.2963 C.ar    
  11 C11            2.6039    -1.3619    -3.4502 C.2     
  12 O12            1.6101    -2.0619    -3.4924 O.2     
  13 C13            3.7353    -2.9224    -4.8439 C.ar    
  14 N14            3.7029    -1.7091    -4.1489 N.am    
  15 C15            2.5853    -3.4053    -5.4549 C.ar    
  16 C16           -1.8033    -0.0223    -0.3441 C.3     
  17 C17            4.1979     3.2320     0.0447 C.ar    
  18 C18            4.9879     4.3005     0.4134 C.ar    
  19 C19            5.7053     4.9992    -0.5437 C.ar    
  20 C20            5.6347     4.6306    -1.8757 C.ar    
  21 C21            4.8506     3.5582    -2.2576 C.ar    
  22 F22            4.7821     3.1982    -3.5579 F       
  23 Cl23           6.6968     6.3432    -0.0703 Cl      
  24 C24            4.9189    -3.6440    -4.9294 C.ar    
  25 C25            4.9476    -4.8415    -5.6169 C.ar    
  26 C26            3.7997    -5.3219    -6.2201 C.ar    
  27 C27            2.6208    -4.6035    -6.1408 C.ar    
  28 S28            3.8410    -6.8496    -7.0972 S.o2    
  29 N29            3.4779    -8.0473    -6.0128 N.am    
  30 O30            2.7655    -6.8087    -8.0250 O.2     
  31 O31            5.1931    -7.0542    -7.4832 O.2     
  32 H32           -0.6492     2.1846    -1.5949 H       
  33 H33           -0.9281     2.3192     0.1566 H       
  34 H34            0.2824    -1.3286    -1.5106 H       
  35 H35           -0.4087    -0.0725    -2.5715 H       
  36 H36            1.2587     3.3521    -0.6650 H       
  37 H37            1.4469     2.1337     0.6231 H       
  38 H38            4.4714    -1.1176    -4.1697 H       
  39 H39            1.6643    -2.8447    -5.3934 H       
  40 H40           -2.4051     0.3729    -1.1626 H       
  41 H41           -1.8575    -1.1109    -0.3460 H       
  42 H42           -2.1838     0.3588     0.6035 H       
  43 H43            3.6392     2.6890     0.7926 H       
  44 H44            5.0472     4.5935     1.4512 H       
  45 H45            6.1960     5.1794    -2.6175 H       
  46 H46            5.8159    -3.2690    -4.4592 H       
  47 H47            5.8677    -5.4031    -5.6838 H       
  48 H48            1.7261    -4.9814    -6.6130 H       
  49 H49            3.2939    -7.8240    -5.0870 H       
  50 H50            3.4492    -8.9723    -6.3035 H       
@<TRIPOS>BOND
   1    1    2 1
   2    1    6 1
   3    1   32 1
   4    1   33 1
   5    2    3 1
   6    2   16 1
   7    3    4 1
   8    3   34 1
   9    3   35 1
  10    4    5 1
  11    4    7 2
  12    5    6 1
  13    5    9 1
  14    6   36 1
  15    6   37 1
  16    7    8 1
  17    7   11 1
  18    8    9 2
  19    9   10 1
  20   10   17 ar
  21   10   21 ar
  22   11   12 2
  23   11   14 am
  24   13   14 1
  25   13   24 ar
  26   13   15 ar
  27   14   38 1
  28   15   27 ar
  29   15   39 1
  30   16   40 1
  31   16   41 1
  32   16   42 1
  33   17   18 ar
  34   17   43 1
  35   18   19 ar
  36   18   44 1
  37   19   20 ar
  38   19   23 1
  39   20   21 ar
  40   20   45 1
  41   21   22 1
  42   24   25 ar
  43   24   46 1
  44   25   26 ar
  45   25   47 1
  46   26   27 ar
  47   26   28 1
  48   27   48 1
  49   28   29 am
  50   28   30 2
  51   28   31 2
  52   29   49 1
  53   29   50 1

#	End of record

