#	Name: ASD02500161
#	Creating user name:	WinNT
#	Creation time:	15. 06. 2019 20:22

#	Modifying user name:	WinNT
#	Modification time:	15. 06. 2019 20:22

#	Program:	/corina/corina34_cracker 3.40 0067  02.08.2006

@<TRIPOS>MOLECULE
ASD02500161
  70   73    0    0    0
SMALL
NO_CHARGES


@<TRIPOS>ATOM
   1 C1            -3.1005    -2.9866     1.6282 C.2     
   2 C2            -1.9366    -2.0294     1.6414 C.3     
   3 C3            -0.6496    -2.7868     1.3085 C.3     
   4 C4             0.5321    -1.8150     1.3219 C.3     
   5 O5            -2.9192    -4.1547     1.3782 O.2     
   6 O6            -4.3378    -2.5425     1.8997 O.3     
   7 C7             2.9403    -1.8832     0.9571 C.2     
   8 O8             2.9672    -0.6750     1.0910 O.2     
   9 N9             1.7644    -2.5402     1.0031 N.am    
  10 N10            4.0862    -2.5654     0.7628 N.am    
  11 C11            4.0822    -4.0340     0.7070 C.3     
  12 C12            4.7272    -4.4761    -0.6124 C.3     
  13 N13            6.0032    -3.7647    -0.7728 N.am    
  14 C14            6.0072    -2.2962    -0.7171 C.3     
  15 C15            5.3614    -1.8538     0.5967 C.3     
  16 C16            7.1491    -4.4470    -0.9672 C.2     
  17 C17            8.4015    -3.7201    -1.2492 C.ar    
  18 C18            9.6212    -4.2193    -0.7831 C.ar    
  19 C19           10.7877    -3.5389    -1.0477 C.ar    
  20 C20           10.7540    -2.3546    -1.7788 C.ar    
  21 C21            9.5409    -1.8547    -2.2440 C.ar    
  22 C22            8.3716    -2.5337    -1.9880 C.ar    
  23 O23            7.1508    -5.6616    -0.9102 O.2     
  24 S24           12.2328    -1.0942    -3.5684 S.o2    
  25 O25           11.0696    -0.3793    -3.9623 O.2     
  26 O26           13.5280    -0.5107    -3.5306 O.2     
  27 N27           11.9345    -1.6695    -2.0445 N.am    
  28 N28           14.3109    -3.2629    -3.5242 N.ar    
  29 C29           15.2864    -4.1252    -3.3724 C.ar    
  30 C30           15.4140    -5.2408    -4.1974 C.ar    
  31 C31           14.5075    -5.4576    -5.1957 C.ar    
  32 C32           13.4610    -4.5296    -5.3555 C.ar    
  33 C33           12.4922    -4.6858    -6.3595 C.ar    
  34 C34           11.4956    -3.7660    -6.4820 C.ar    
  35 C35           11.4236    -2.6715    -5.6231 C.ar    
  36 C36           12.3464    -2.4887    -4.6395 C.ar    
  37 C37           13.3905    -3.4163    -4.4816 C.ar    
  38 C38           -5.4107    -3.5204     1.8688 C.3     
  39 C39           -6.7367    -2.8333     2.2010 C.3     
  40 H40           -2.1005    -1.2479     0.8996 H       
  41 H41           -1.8478    -1.5791     2.6301 H       
  42 H42           -0.4857    -3.5684     2.0504 H       
  43 H43           -0.7384    -3.2372     0.3199 H       
  44 H44            0.3682    -1.0334     0.5800 H       
  45 H45            0.6209    -1.3647     2.3106 H       
  46 H46            1.7341    -3.4933     0.8251 H       
  47 H47            4.6531    -4.4335     1.5452 H       
  48 H48            3.0562    -4.3990     0.7530 H       
  49 H49            4.9079    -5.5508    -0.5891 H       
  50 H50            4.0652    -4.2319    -1.4431 H       
  51 H51            7.0332    -1.9312    -0.7631 H       
  52 H52            5.4363    -1.8967    -1.5553 H       
  53 H53            5.1799    -0.7794     0.5698 H       
  54 H54            6.0254    -2.0945     1.4269 H       
  55 H55            9.6480    -5.1378    -0.2156 H       
  56 H56           11.7303    -3.9239    -0.6876 H       
  57 H57            9.5179    -0.9353    -2.8102 H       
  58 H58            7.4314    -2.1480    -2.3535 H       
  59 H59           12.5832    -1.5286    -1.3373 H       
  60 H60           16.0107    -3.9667    -2.5871 H       
  61 H61           16.2292    -5.9332    -4.0479 H       
  62 H62           14.5914    -6.3168    -5.8446 H       
  63 H63           12.5374    -5.5304    -7.0311 H       
  64 H64           10.7508    -3.8870    -7.2546 H       
  65 H65           10.6238    -1.9554    -5.7410 H       
  66 H66           -5.4700    -3.9634     0.8747 H       
  67 H67           -5.2120    -4.3011     2.6032 H       
  68 H68           -7.5421    -3.5674     2.1778 H       
  69 H69           -6.6773    -2.3903     3.1952 H       
  70 H70           -6.9354    -2.0527     1.4667 H       
@<TRIPOS>BOND
   1    1    2 1
   2    1    5 2
   3    1    6 1
   4    2    3 1
   5    2   40 1
   6    2   41 1
   7    3    4 1
   8    3   42 1
   9    3   43 1
  10    4    9 1
  11    4   44 1
  12    4   45 1
  13    6   38 1
  14    7    8 2
  15    7    9 am
  16    7   10 am
  17    9   46 1
  18   10   11 1
  19   10   15 1
  20   11   12 1
  21   11   47 1
  22   11   48 1
  23   12   13 1
  24   12   49 1
  25   12   50 1
  26   13   14 1
  27   13   16 am
  28   14   15 1
  29   14   51 1
  30   14   52 1
  31   15   53 1
  32   15   54 1
  33   16   17 1
  34   16   23 2
  35   17   18 ar
  36   17   22 ar
  37   18   19 ar
  38   18   55 1
  39   19   20 ar
  40   19   56 1
  41   20   21 ar
  42   20   27 1
  43   21   22 ar
  44   21   57 1
  45   22   58 1
  46   24   25 2
  47   24   26 2
  48   24   27 am
  49   24   36 1
  50   27   59 1
  51   28   29 ar
  52   28   37 ar
  53   29   30 ar
  54   29   60 1
  55   30   31 ar
  56   30   61 1
  57   31   32 ar
  58   31   62 1
  59   32   33 ar
  60   32   37 ar
  61   33   34 ar
  62   33   63 1
  63   34   35 ar
  64   34   64 1
  65   35   36 ar
  66   35   65 1
  67   36   37 ar
  68   38   39 1
  69   38   66 1
  70   38   67 1
  71   39   68 1
  72   39   69 1
  73   39   70 1

#	End of record

