#	Name: ASD01880553
#	Creating user name:	WinNT
#	Creation time:	15. 06. 2019 19:40

#	Modifying user name:	WinNT
#	Modification time:	15. 06. 2019 19:40

#	Program:	/corina/corina34_cracker 3.40 0067  02.08.2006

@<TRIPOS>MOLECULE
ASD01880553
  55   58    0    0    0
SMALL
NO_CHARGES


@<TRIPOS>ATOM
   1 N1            -0.0120     1.2860    -0.2165 N.ar    
   2 C2             0.0412    -0.0301    -0.2361 C.ar    
   3 N3             1.1670    -0.6837    -0.0306 N.ar    
   4 C4             2.2998    -0.0352     0.2058 C.ar    
   5 C5             2.2914     1.3476     0.2356 C.ar    
   6 C6             1.0820     2.0071     0.0139 C.ar    
   7 C7             3.5564     2.1224     0.5012 C.3     
   8 O8             4.2803     2.2856    -0.7199 O.3     
   9 C9             5.4524     2.9665    -0.6550 C.ar    
  10 C10            6.2077     3.1616    -1.8073 C.ar    
  11 C11            7.3930     3.8509    -1.7404 C.ar    
  12 C12            7.8479     4.3597    -0.5193 C.ar    
  13 C13            7.0852     4.1613     0.6349 C.ar    
  14 C14            5.8945     3.4732     0.5612 C.ar    
  15 C15            8.4270     4.2298    -2.7712 C.3     
  16 N16            9.4696     4.9710    -2.0523 N.am    
  17 C17            9.1315     5.0436    -0.7536 C.2     
  18 O18            9.7911     5.5956     0.1058 O.2     
  19 Cl19           3.7743    -0.9111     0.4750 Cl      
  20 N20            1.0213     3.3912     0.0335 N.3     
  21 C21           -0.2370     3.8548     0.6349 C.3     
  22 C22           -0.2305     5.3834     0.7103 C.3     
  23 N23           -0.0602     5.9372    -0.6403 N.3     
  24 C24            1.1980     5.4736    -1.2416 C.3     
  25 C25            1.1915     3.9450    -1.3170 C.3     
  26 C26           -0.1246     7.4046    -0.6195 C.3     
  27 C27           11.6628     7.5617    -3.7387 C.3     
  28 C28           10.3985     6.9695    -3.1128 C.3     
  29 C29           10.6802     5.5381    -2.6516 C.3     
  30 H30           -0.8632    -0.5892    -0.4254 H       
  31 H31            3.3040     3.1018     0.9077 H       
  32 H32            4.1715     1.5789     1.2184 H       
  33 H33            5.8621     2.7709    -2.7530 H       
  34 H34            7.4276     4.5496     1.5828 H       
  35 H35            5.3055     3.3206     1.4535 H       
  36 H36            8.8498     3.3334    -3.2249 H       
  37 H37            7.9783     4.8621    -3.5372 H       
  38 H38           -1.0760     3.5244     0.0226 H       
  39 H39           -0.3341     3.4415     1.6388 H       
  40 H40           -1.1748     5.7308     1.1294 H       
  41 H41            0.5924     5.7127     1.3448 H       
  42 H42            1.2951     5.8869    -2.2456 H       
  43 H43            2.0371     5.8040    -0.6293 H       
  44 H44            2.1359     3.5976    -1.7361 H       
  45 H45            0.3687     3.6157    -1.9515 H       
  46 H46            0.6674     7.7940     0.0203 H       
  47 H47            0.0044     7.7883    -1.6316 H       
  48 H48           -1.0931     7.7204    -0.2318 H       
  49 H49           11.4621     8.5815    -4.0673 H       
  50 H50           12.4646     7.5690    -3.0004 H       
  51 H51           11.9623     6.9566    -4.5944 H       
  52 H52           10.0990     7.5746    -2.2571 H       
  53 H53            9.5967     6.9621    -3.8512 H       
  54 H54           11.4820     5.5454    -1.9133 H       
  55 H55           10.9798     4.9330    -3.5073 H       
@<TRIPOS>BOND
   1    1    2 ar
   2    1    6 ar
   3    2    3 ar
   4    2   30 1
   5    3    4 ar
   6    4    5 ar
   7    4   19 1
   8    5    6 ar
   9    5    7 1
  10    6   20 1
  11    7    8 1
  12    7   31 1
  13    7   32 1
  14    8    9 1
  15    9   10 ar
  16    9   14 ar
  17   10   11 ar
  18   10   33 1
  19   11   12 ar
  20   11   15 1
  21   12   13 ar
  22   12   17 1
  23   13   14 ar
  24   13   34 1
  25   14   35 1
  26   15   16 1
  27   15   36 1
  28   15   37 1
  29   16   17 am
  30   16   29 1
  31   17   18 2
  32   20   21 1
  33   20   25 1
  34   21   22 1
  35   21   38 1
  36   21   39 1
  37   22   23 1
  38   22   40 1
  39   22   41 1
  40   23   24 1
  41   23   26 1
  42   24   25 1
  43   24   42 1
  44   24   43 1
  45   25   44 1
  46   25   45 1
  47   26   46 1
  48   26   47 1
  49   26   48 1
  50   27   28 1
  51   27   49 1
  52   27   50 1
  53   27   51 1
  54   28   29 1
  55   28   52 1
  56   28   53 1
  57   29   54 1
  58   29   55 1

#	End of record

