#	Name: ASD01141042
#	Creating user name:	WinNT
#	Creation time:	15. 06. 2019 19:01

#	Modifying user name:	WinNT
#	Modification time:	15. 06. 2019 19:01

#	Program:	/corina/corina34_cracker 3.40 0067  02.08.2006

@<TRIPOS>MOLECULE
ASD01141042
  67   71    0    0    0
SMALL
NO_CHARGES


@<TRIPOS>ATOM
   1 C1            -0.0236     1.5619     0.0096 C.3     
   2 C2            -0.0200     0.0126    -0.0040 C.3     
   3 C3             1.4688     1.9641    -0.0014 C.3     
   4 C4             1.4759    -0.4156     0.0681 C.3     
   5 C5             2.0883     0.7932     0.7918 C.3     
   6 C6             1.7646     3.2690     0.6969 C.3     
   7 C7             1.8946     1.9995    -1.4666 C.3     
   8 C8             3.5759     0.8770     0.8935 C.3     
   9 C9             3.2413     3.3651     1.1050 C.3     
  10 C10            4.0953     2.2627     0.5106 C.3     
  11 C11            4.3236    -0.1766     0.0803 C.3     
  12 C12            5.5661     2.3715     0.9319 C.3     
  13 C13            5.8142    -0.0932     0.4413 C.3     
  14 C14            6.0434     1.0207     1.4577 C.3     
  15 C15            5.7369     3.4289     2.0196 C.3     
  16 C16            6.3742     2.7803    -0.3054 C.3     
  17 C17            7.5193     1.0979     1.8487 C.3     
  18 H18            5.4795     0.7805     2.3713 H       
  19 C19            7.1983     3.5130     2.4583 C.3     
  20 C20            7.6999     2.1540     2.9400 C.3     
  21 H21            8.7617     2.2309     3.1901 H       
  22 O22            6.9762     1.7627     4.1091 O.3     
  23 H23            7.0467     2.3883     4.8430 H       
  24 C24           -0.6855     2.0858    -1.1932 C.1     
  25 C25           -1.2143     2.5044    -2.1541 C.1     
  26 C26           -1.8594     3.0150    -3.3263 C.ar    
  27 C27           -1.9746     4.3922    -3.5190 C.ar    
  28 C28           -2.5968     4.8777    -4.6507 C.ar    
  29 C29           -3.1059     4.0023    -5.5933 C.ar    
  30 C30           -2.9953     2.6358    -5.4079 C.ar    
  31 C31           -2.3703     2.1375    -4.2833 C.ar    
  32 C32           -3.7842     4.5396    -6.8270 C.3     
  33 H33           -0.4951     1.9379     0.9115 H       
  34 H34           -0.5569    -0.3722     0.8607 H       
  35 H35           -0.4674    -0.3565    -0.9249 H       
  36 H36            1.5798    -1.3158     0.6762 H       
  37 H37            1.8950    -0.5644    -0.9173 H       
  38 H38            1.6654     0.8091     1.8196 H       
  39 H39            1.5126     4.1062     0.0336 H       
  40 H40            1.1339     3.3529     1.5929 H       
  41 H41            1.2248     2.6543    -2.0239 H       
  42 H42            2.9148     2.3762    -1.5394 H       
  43 H43            1.8484     0.9931    -1.8828 H       
  44 H44            3.8315     0.7080     1.9595 H       
  45 H45            3.6325     4.3407     0.7867 H       
  46 H46            3.3060     3.3267     2.2004 H       
  47 H47            4.1137     2.3592    -0.5800 H       
  48 H48            3.9471    -1.1687     0.3262 H       
  49 H49            4.1968     0.0156    -0.9833 H       
  50 H50            6.1193    -1.0478     0.8838 H       
  51 H51            6.4013     0.0769    -0.4569 H       
  52 H52            5.4235     4.4019     1.6339 H       
  53 H53            5.1168     3.1713     2.8802 H       
  54 H54            6.2469     2.0307    -1.0864 H       
  55 H55            6.0209     3.7458    -0.6675 H       
  56 H56            7.4292     2.8550    -0.0420 H       
  57 H57            7.8291     0.1244     2.2466 H       
  58 H58            8.1396     1.3328     0.9908 H       
  59 H59            7.8226     3.8714     1.6423 H       
  60 H60            7.2760     4.2305     3.2849 H       
  61 H61           -1.5779     5.0766    -2.7837 H       
  62 H62           -2.6869     5.9434    -4.8009 H       
  63 H63           -3.3954     1.9576    -6.1471 H       
  64 H64           -2.2846     1.0705    -4.1398 H       
  65 H65           -3.0461     4.6756    -7.6175 H       
  66 H66           -4.5463     3.8344    -7.1589 H       
  67 H67           -4.2510     5.4974    -6.5971 H       
@<TRIPOS>BOND
   1    1    2 1
   2    1    3 1
   3    1   24 1
   4    1   33 1
   5    2    4 1
   6    2   34 1
   7    2   35 1
   8    3    5 1
   9    3    6 1
  10    3    7 1
  11    4    5 1
  12    4   36 1
  13    4   37 1
  14    5    8 1
  15    5   38 1
  16    6    9 1
  17    6   39 1
  18    6   40 1
  19    7   41 1
  20    7   42 1
  21    7   43 1
  22    8   10 1
  23    8   11 1
  24    8   44 1
  25    9   10 1
  26    9   45 1
  27    9   46 1
  28   10   12 1
  29   10   47 1
  30   11   13 1
  31   11   48 1
  32   11   49 1
  33   12   14 1
  34   12   15 1
  35   12   16 1
  36   13   14 1
  37   13   50 1
  38   13   51 1
  39   14   17 1
  40   14   18 1
  41   15   19 1
  42   15   52 1
  43   15   53 1
  44   16   54 1
  45   16   55 1
  46   16   56 1
  47   17   20 1
  48   17   57 1
  49   17   58 1
  50   19   20 1
  51   19   59 1
  52   19   60 1
  53   20   21 1
  54   20   22 1
  55   22   23 1
  56   24   25 3
  57   25   26 1
  58   26   27 ar
  59   26   31 ar
  60   27   28 ar
  61   27   61 1
  62   28   29 ar
  63   28   62 1
  64   29   30 ar
  65   29   32 1
  66   30   31 ar
  67   30   63 1
  68   31   64 1
  69   32   65 1
  70   32   66 1
  71   32   67 1

#	End of record

