#	Name: ASD01813922
#	Creating user name:	WinNT
#	Creation time:	15. 06. 2019 19:31

#	Modifying user name:	WinNT
#	Modification time:	15. 06. 2019 19:31

#	Program:	/corina/corina34_cracker 3.40 0067  02.08.2006

@<TRIPOS>MOLECULE
ASD01813922
  54   57    0    0    0
SMALL
NO_CHARGES


@<TRIPOS>ATOM
   1 C1             0.4983     1.4966    -1.3860 C.3     
   2 N2             0.4351     0.0606    -1.1031 N.am    
   3 C3            -0.1735    -0.5505     0.0840 C.3     
   4 C4             0.0054    -2.0402    -0.0706 C.ar    
   5 C5             0.6780    -2.2336    -1.2815 C.ar    
   6 C6             0.9200    -0.9144    -1.8910 C.2     
   7 O7             1.4808    -0.7332    -2.9545 O.2     
   8 C8            -0.3499    -3.1169     0.7070 C.ar    
   9 C9            -0.0388    -4.4083     0.2876 C.ar    
  10 C10            0.6293    -4.6074    -0.9141 C.ar    
  11 C11            0.9869    -3.5320    -1.6967 C.ar    
  12 C12            0.9642    -6.0063    -1.3634 C.3     
  13 C13            2.2719    -6.4323    -0.7473 C.ar    
  14 C14            3.4652    -6.0955    -1.3592 C.ar    
  15 C15            2.2765    -7.1543     0.4318 C.ar    
  16 C16            3.4739    -7.5455     0.9989 C.ar    
  17 C17            4.6724    -7.2138     0.3839 C.ar    
  18 C18            4.6652    -6.4848    -0.7965 C.ar    
  19 C19           -0.2291     1.7901    -2.6997 C.3     
  20 C20            1.9610     1.9291    -1.5053 C.3     
  21 C21            2.0270     3.4289    -1.8007 C.3     
  22 C22            1.2996     3.7224    -3.1144 C.3     
  23 C23           -0.1631     3.2899    -2.9951 C.3     
  24 F24           -1.5666     1.3947    -2.5906 F       
  25 O25           -0.3882    -5.4731     1.0540 O.3     
  26 F26           -0.9992    -2.9229     1.8758 F       
  27 O27            5.8517    -7.5972     0.9399 O.3     
  28 C28            7.0462    -7.2206     0.2518 C.3     
  29 C29           -1.7152    -5.9790     0.8953 C.3     
  30 H30            0.0213     2.0479    -0.5756 H       
  31 H31            0.3325    -0.2038     0.9850 H       
  32 H32           -1.2341    -0.3033     0.1307 H       
  33 H33            1.5058    -3.6918    -2.6303 H       
  34 H34            0.1746    -6.6882    -1.0476 H       
  35 H35            1.0501    -6.0283    -2.4498 H       
  36 H36            3.4590    -5.5280    -2.2781 H       
  37 H37            1.3432    -7.4123     0.9102 H       
  38 H38            3.4771    -8.1089     1.9203 H       
  39 H39            5.5970    -6.2218    -1.2750 H       
  40 H40            0.2479     1.2389    -3.5101 H       
  41 H41            2.4792     1.7200    -0.5694 H       
  42 H42            2.4380     1.3778    -2.3157 H       
  43 H43            1.5500     3.9801    -0.9903 H       
  44 H44            3.0690     3.7370    -1.8857 H       
  45 H45            1.3466     4.7908    -3.3249 H       
  46 H46            1.7766     3.1711    -3.9248 H       
  47 H47           -0.6813     3.4990    -3.9310 H       
  48 H48           -0.6401     3.8412    -2.1847 H       
  49 H49            7.0403    -7.6521    -0.7491 H       
  50 H50            7.0963    -6.1342     0.1788 H       
  51 H51            7.9131    -7.5882     0.8009 H       
  52 H52           -1.8653    -6.8226     1.5691 H       
  53 H53           -2.4338    -5.1939     1.1304 H       
  54 H54           -1.8585    -6.3064    -0.1344 H       
@<TRIPOS>BOND
   1    1    2 1
   2    1   20 1
   3    1   19 1
   4    1   30 1
   5    2    3 1
   6    2    6 am
   7    3    4 1
   8    3   31 1
   9    3   32 1
  10    4    8 ar
  11    4    5 ar
  12    5    6 1
  13    5   11 ar
  14    6    7 2
  15    8    9 ar
  16    8   26 1
  17    9   10 ar
  18    9   25 1
  19   10   11 ar
  20   10   12 1
  21   11   33 1
  22   12   13 1
  23   12   34 1
  24   12   35 1
  25   13   15 ar
  26   13   14 ar
  27   14   18 ar
  28   14   36 1
  29   15   16 ar
  30   15   37 1
  31   16   17 ar
  32   16   38 1
  33   17   18 ar
  34   17   27 1
  35   18   39 1
  36   19   23 1
  37   19   24 1
  38   19   40 1
  39   20   21 1
  40   20   41 1
  41   20   42 1
  42   21   22 1
  43   21   43 1
  44   21   44 1
  45   22   23 1
  46   22   45 1
  47   22   46 1
  48   23   47 1
  49   23   48 1
  50   25   29 1
  51   27   28 1
  52   28   49 1
  53   28   50 1
  54   28   51 1
  55   29   52 1
  56   29   53 1
  57   29   54 1

#	End of record

