#	Name: ASD04840088
#	Creating user name:	WinNT
#	Creation time:	15. 06. 2019 20:52

#	Modifying user name:	WinNT
#	Modification time:	15. 06. 2019 20:52

#	Program:	/corina/corina34_cracker 3.40 0067  02.08.2006

@<TRIPOS>MOLECULE
ASD04840088
  49   52    0    0    0
SMALL
NO_CHARGES


@<TRIPOS>ATOM
   1 C1             0.7149     1.6617     0.0421 C.ar    
   2 C2             1.0542     0.2825     0.0280 C.ar    
   3 N3             3.3181     0.9346    -0.1068 N.ar    
   4 C4             2.9529     2.1955    -0.0906 C.ar    
   5 N5             1.6855     2.5609    -0.0182 N.ar    
   6 C6             0.2086    -0.8909     0.0816 C.2     
   7 C7             0.8655    -2.0504     0.0477 C.2     
   8 S8             2.5975    -1.7961    -0.0542 S.3     
   9 C9             2.4109    -0.0487    -0.0498 C.ar    
  10 N10           -0.6077     2.0592     0.1119 N.pl3   
  11 C11           -0.9443     3.4849     0.1258 C.3     
  12 C12           -2.1074     3.7437    -0.8340 C.3     
  13 P13           -1.4273     3.9789     1.8128 P.3     
  14 O14           -1.4783     5.5852     1.9078 O.3     
  15 O15           -2.8802     3.3747     2.1537 O.3     
  16 O16           -0.4369     3.4586     2.7818 O.2     
  17 C17            0.2177    -3.3787     0.0904 C.ar    
  18 C18            0.9932    -4.5384     0.0496 C.ar    
  19 C19            0.3824    -5.7747     0.0903 C.ar    
  20 C20           -0.9957    -5.8666     0.1714 C.ar    
  21 C21           -1.7703    -4.7209     0.2122 C.ar    
  22 C22           -1.1717    -3.4783     0.1776 C.ar    
  23 C23           -1.6560    -7.2205     0.2150 C.3     
  24 C24           -1.6664     3.4573    -2.2463 C.ar    
  25 C25           -0.8261     4.2260    -4.3524 C.ar    
  26 C26           -1.2306     4.4887    -3.0569 C.ar    
  27 C27           -1.6924     2.1623    -2.7294 C.ar    
  28 C28           -1.2879     1.8996    -4.0248 C.ar    
  29 C29           -0.8580     2.9319    -4.8375 C.ar    
  30 H30            3.7144     2.9600    -0.1378 H       
  31 H31           -0.8680    -0.8318     0.1445 H       
  32 H32           -1.3126     1.3940     0.1517 H       
  33 H33           -0.0775     4.0660    -0.1888 H       
  34 H34           -2.9433     3.0936    -0.5755 H       
  35 H35           -2.4190     4.7852    -0.7548 H       
  36 H36           -2.1584     5.9907     1.3527 H       
  37 H37           -3.2015     3.5982     3.0380 H       
  38 H38            2.0690    -4.4680    -0.0141 H       
  39 H39            0.9814    -6.6729     0.0584 H       
  40 H40           -2.8455    -4.7994     0.2756 H       
  41 H41           -1.7771    -2.5848     0.2140 H       
  42 H42           -1.7551    -7.5433     1.2514 H       
  43 H43           -2.6436    -7.1580    -0.2421 H       
  44 H44           -1.0470    -7.9396    -0.3329 H       
  45 H45           -0.4860     5.0319    -4.9859 H       
  46 H46           -1.2065     5.4998    -2.6782 H       
  47 H47           -2.0283     1.3558    -2.0945 H       
  48 H48           -1.3076     0.8878    -4.4020 H       
  49 H49           -0.5419     2.7266    -5.8496 H       
@<TRIPOS>BOND
   1    1    2 ar
   2    1    5 ar
   3    1   10 1
   4    2    9 ar
   5    2    6 1
   6    3    4 ar
   7    3    9 ar
   8    4    5 ar
   9    4   30 1
  10    6    7 2
  11    6   31 1
  12    7    8 1
  13    7   17 1
  14    8    9 1
  15   10   11 1
  16   10   32 1
  17   11   12 1
  18   11   13 1
  19   11   33 1
  20   12   24 1
  21   12   34 1
  22   12   35 1
  23   13   14 1
  24   13   15 1
  25   13   16 2
  26   14   36 1
  27   15   37 1
  28   17   18 ar
  29   17   22 ar
  30   18   19 ar
  31   18   38 1
  32   19   20 ar
  33   19   39 1
  34   20   21 ar
  35   20   23 1
  36   21   22 ar
  37   21   40 1
  38   22   41 1
  39   23   42 1
  40   23   43 1
  41   23   44 1
  42   24   27 ar
  43   24   26 ar
  44   25   26 ar
  45   25   29 ar
  46   25   45 1
  47   26   46 1
  48   27   28 ar
  49   27   47 1
  50   28   29 ar
  51   28   48 1
  52   29   49 1

#	End of record

