#	Name: ASD08151053
#	Creating user name:	WinNT
#	Creation time:	15. 06. 2019 21:17

#	Modifying user name:	WinNT
#	Modification time:	15. 06. 2019 21:17

#	Program:	/corina/corina34_cracker 3.40 0067  02.08.2006

@<TRIPOS>MOLECULE
ASD08151053
  62   64    0    0    0
SMALL
NO_CHARGES


@<TRIPOS>ATOM
   1 N1            -0.2732     1.4102     0.0576 N.2     
   2 C2            -0.6777     0.2774     0.5545 C.2     
   3 N3            -0.3476     0.2037     1.8750 N.pl3   
   4 C4             0.3000     1.3681     2.2027 C.ar    
   5 N5             0.8426     1.8601     3.3115 N.ar    
   6 C6             1.4108     3.0476     3.3107 C.ar    
   7 N7             1.4726     3.8030     2.2294 N.ar    
   8 C8             0.9574     3.3948     1.0742 C.ar    
   9 C9             0.3404     2.1334     1.0248 C.ar    
  10 N10            1.0266     4.1938    -0.0536 N.pl3   
  11 C11            1.6735     5.5064     0.0171 C.3     
  12 C12            2.1612     5.9103    -1.3757 C.3     
  13 N13            0.6199     9.7944     2.1268 N.ar    
  14 C14           -0.2386    10.6845     2.5639 C.ar    
  15 C15           -1.6135    10.4856     2.4647 C.ar    
  16 C16           -2.0971     9.3393     1.9005 C.ar    
  17 C17           -1.1717     8.3872     1.4331 C.ar    
  18 C18           -1.5970     7.1855     0.8412 C.ar    
  19 C19           -0.6773     6.2813     0.3973 C.ar    
  20 C20            0.6850     6.5272     0.5189 C.ar    
  21 C21            1.1446     7.6979     1.0956 C.ar    
  22 C22            0.2125     8.6541     1.5656 C.ar    
  23 C23            2.5994     7.9484     1.2206 C.ar    
  24 C24            3.1914     8.9985     0.5198 C.ar    
  25 C25            4.5488     9.2272     0.6410 C.ar    
  26 C26            5.3200     8.4148     1.4570 C.ar    
  27 C27            4.7365     7.3722     2.1532 C.ar    
  28 C28            3.3806     7.1383     2.0440 C.ar    
  29 F29            5.1250    10.2437    -0.0373 F       
  30 Cl30          -3.2925     6.8516     0.6761 Cl      
  31 H31           -1.1983    -0.4909     0.0021 H       
  32 H32           -0.5363    -0.5360     2.4734 H       
  33 H33            1.8423     3.4180     4.2288 H       
  34 H34            0.6469     3.8848    -0.8910 H       
  35 H35            2.5224     5.4568     0.6991 H       
  36 H36            2.6424     6.8869    -1.3231 H       
  37 H37            2.8762     5.1720    -1.7386 H       
  38 H38            1.3123     5.9599    -2.0576 H       
  39 H39            0.1302    11.5951     3.0125 H       
  40 H40           -2.2964    11.2365     2.8338 H       
  41 H41           -3.1601     9.1682     1.8158 H       
  42 H42           -1.0130     5.3603    -0.0560 H       
  43 H43            2.5905     9.6314    -0.1165 H       
  44 H44            6.3806     8.5965     1.5494 H       
  45 H45            5.3425     6.7419     2.7872 H       
  46 H46            2.9261     6.3265     2.5923 H       
  47 C47           12.5520    18.5833    10.3756 C.2     
  48 C48           12.5724    17.0765    10.3673 C.3     
  49 O49           13.5901    19.2016    10.3690 O.2     
  50 O50           11.3806    19.2386    10.3847 O.3     
  51 F51           13.8976    16.6282    10.3523 F       
  52 F52           11.9303    16.5951    11.5132 F       
  53 F53           11.9085    16.6074     9.2288 F       
  54 H54           11.4181    20.2049    10.3898 H       
  55 C55           20.0690    27.1931    17.6600 C.2     
  56 C56           20.0895    25.6863    17.6518 C.3     
  57 O57           21.1071    27.8114    17.6535 O.2     
  58 O58           18.8976    27.8484    17.6692 O.3     
  59 F59           21.4146    25.2379    17.6367 F       
  60 F60           19.4473    25.2049    18.7977 F       
  61 F61           19.4255    25.2171    16.5132 F       
  62 H62           18.9351    28.8146    17.6742 H       
@<TRIPOS>BOND
   1    1    2 2
   2    1    9 1
   3    2    3 1
   4    2   31 1
   5    3    4 1
   6    3   32 1
   7    4    5 ar
   8    4    9 ar
   9    5    6 ar
  10    6    7 ar
  11    6   33 1
  12    7    8 ar
  13    8    9 ar
  14    8   10 1
  15   10   11 1
  16   10   34 1
  17   11   12 1
  18   11   20 1
  19   11   35 1
  20   12   36 1
  21   12   37 1
  22   12   38 1
  23   13   14 ar
  24   13   22 ar
  25   14   15 ar
  26   14   39 1
  27   15   16 ar
  28   15   40 1
  29   16   17 ar
  30   16   41 1
  31   17   18 ar
  32   17   22 ar
  33   18   19 ar
  34   18   30 1
  35   19   20 ar
  36   19   42 1
  37   20   21 ar
  38   21   22 ar
  39   21   23 1
  40   23   24 ar
  41   23   28 ar
  42   24   25 ar
  43   24   43 1
  44   25   26 ar
  45   25   29 1
  46   26   27 ar
  47   26   44 1
  48   27   28 ar
  49   27   45 1
  50   28   46 1
  51   47   48 1
  52   47   49 2
  53   47   50 1
  54   48   51 1
  55   48   52 1
  56   48   53 1
  57   50   54 1
  58   55   56 1
  59   55   57 2
  60   55   58 1
  61   56   59 1
  62   56   60 1
  63   56   61 1
  64   58   62 1

#	End of record

