#	Name: ASD03240030
#	Creating user name:	WinNT
#	Creation time:	15. 06. 2019 20:34

#	Modifying user name:	WinNT
#	Modification time:	15. 06. 2019 20:34

#	Program:	/corina/corina34_cracker 3.40 0067  02.08.2006

@<TRIPOS>MOLECULE
ASD03240030
  98  104    0    0    0
SMALL
NO_CHARGES


@<TRIPOS>ATOM
   1 C1             0.0453     0.7339     1.1193 C.ar    
   2 C2            -0.0205    -0.6636     0.8874 C.ar    
   3 N3             1.2253     1.3280     1.3289 N.ar    
   4 C4             2.3355     0.6128     1.3205 C.ar    
   5 C5             2.2672    -0.8281     1.0813 C.ar    
   6 N6             1.0961    -1.4014     0.8764 N.ar    
   7 C7             3.5060    -1.6404     1.0696 C.ar    
   8 C8             3.6438     1.2673     1.5517 C.ar    
   9 C9             3.8741     2.5589     1.0779 C.ar    
  10 C10            5.0949     3.1634     1.2969 C.ar    
  11 C11            6.0894     2.4913     1.9848 C.ar    
  12 C12            5.8670     1.2101     2.4572 C.ar    
  13 C13            4.6486     0.5969     2.2492 C.ar    
  14 C14            3.4922    -2.9453     1.5616 C.ar    
  15 C15            4.6493    -3.6970     1.5480 C.ar    
  16 C16            5.8214    -3.1586     1.0477 C.ar    
  17 C17            5.8413    -1.8648     0.5582 C.ar    
  18 C18            4.6893    -1.1053     0.5612 C.ar    
  19 C19            7.0817    -3.9848     1.0362 C.3     
  20 N20            7.1698    -4.7260    -0.2290 N.3     
  21 C21            8.4886    -5.3539    -0.3803 C.3     
  22 C22            8.5952    -5.9920    -1.7672 C.3     
  23 C23            7.4893    -7.0386    -1.9285 C.3     
  24 C24            6.1286    -6.3685    -1.7185 C.3     
  25 C25            6.0935    -5.7196    -0.3330 C.3     
  26 N26            7.5501    -7.6115    -3.2755 N.am    
  27 C27            7.7524    -8.9553    -3.5814 C.ar    
  28 C28            7.7394    -9.0586    -4.9738 C.ar    
  29 N29            7.5296    -7.7744    -5.4707 N.am    
  30 C30            7.4143    -6.9298    -4.4286 C.2     
  31 C31            7.9442   -10.0892    -2.8066 C.ar    
  32 C32            8.1216   -11.3159    -3.4156 C.ar    
  33 C33            8.1087   -11.4183    -4.7962 C.ar    
  34 C34            7.9183   -10.2946    -5.5762 C.ar    
  35 O35            7.2247    -5.7310    -4.5157 O.2     
  36 C36           -1.2701    -1.2683     0.6694 C.ar    
  37 C37           -2.4171    -0.4930     0.6840 C.ar    
  38 C38           -2.3383     0.8917     0.9151 C.ar    
  39 C39           -1.1411     1.4925     1.1334 C.ar    
  40 C40           -3.7334    -1.1252     0.4547 C.2     
  41 O41           -3.8062    -2.3219     0.2541 O.2     
  42 N42           -4.8529    -0.3748     0.4679 N.am    
  43 C43           -6.1575    -1.0013     0.2406 C.3     
  44 C44           -7.2535     0.0641     0.3070 C.3     
  45 N45           -8.5616    -0.5641     0.0791 N.3     
  46 C46           -9.6540     0.3747     0.3677 C.3     
  47 C47           -9.9698     0.3450     1.8645 C.3     
  48 C48           -9.2315     1.7886    -0.0364 C.3     
  49 C49           -8.6637    -1.0856    -1.2904 C.3     
  50 C50           -9.8972    -1.9838    -1.4035 C.3     
  51 C51           -8.7906     0.0810    -2.2722 C.3     
  52 H52            3.0987     3.0844     0.5404 H       
  53 H53            5.2746     4.1633     0.9302 H       
  54 H54            7.0435     2.9686     2.1534 H       
  55 H55            6.6474     0.6904     2.9933 H       
  56 H56            4.4761    -0.4032     2.6185 H       
  57 H57            2.5779    -3.3665     1.9527 H       
  58 H58            4.6400    -4.7075     1.9290 H       
  59 H59            6.7593    -1.4500     0.1689 H       
  60 H60            4.7060    -0.0954     0.1789 H       
  61 H61            7.9468    -3.3291     1.1342 H       
  62 H62            7.0627    -4.6881     1.8687 H       
  63 H63            9.2658    -4.5981    -0.2675 H       
  64 H64            8.6151    -6.1215     0.3833 H       
  65 H65            8.4826    -5.2228    -2.5313 H       
  66 H66            9.5683    -6.4714    -1.8734 H       
  67 H67            7.6244    -7.8282    -1.1894 H       
  68 H68            5.9772    -5.6053    -2.4818 H       
  69 H69            5.3395    -7.1170    -1.7898 H       
  70 H70            6.2313    -6.4854     0.4304 H       
  71 H71            5.1312    -5.2293    -0.1858 H       
  72 H72            7.4725    -7.5307    -6.4079 H       
  73 H73            7.9552   -10.0131    -1.7294 H       
  74 H74            8.2713   -12.1991    -2.8123 H       
  75 H75            8.2481   -12.3811    -5.2653 H       
  76 H76            7.9085   -10.3784    -6.6529 H       
  77 H77           -1.3353    -2.3314     0.4912 H       
  78 H78           -3.2416     1.4836     0.9231 H       
  79 H79           -1.0972     2.5571     1.3097 H       
  80 H80           -4.7948     0.5802     0.6279 H       
  81 H81           -6.1679    -1.4725    -0.7422 H       
  82 H82           -6.3369    -1.7554     1.0070 H       
  83 H83           -7.2430     0.5354     1.2899 H       
  84 H84           -7.0741     0.8182    -0.4594 H       
  85 H85          -10.5405     0.0851    -0.1965 H       
  86 H86           -9.0616     0.5489     2.4316 H       
  87 H87          -10.7187     1.1034     2.0929 H       
  88 H88          -10.3542    -0.6383     2.1353 H       
  89 H89           -9.0065     1.8097    -1.1027 H       
  90 H90          -10.0420     2.4852     0.1777 H       
  91 H91           -8.3450     2.0781     0.5278 H       
  92 H92           -7.7704    -1.6638    -1.5266 H       
  93 H93          -10.7970    -1.3845    -1.2644 H       
  94 H94           -9.9190    -2.4486    -2.3892 H       
  95 H95           -9.8543    -2.7580    -0.6375 H       
  96 H96           -7.9118     0.7208    -2.1916 H       
  97 H97           -8.8663    -0.3060    -3.2884 H       
  98 H98           -9.6839     0.6591    -2.0360 H       
@<TRIPOS>BOND
   1    1    2 ar
   2    1    3 ar
   3    1   39 ar
   4    2   36 ar
   5    2    6 ar
   6    3    4 ar
   7    4    5 ar
   8    4    8 1
   9    5    6 ar
  10    5    7 1
  11    7   14 ar
  12    7   18 ar
  13    8    9 ar
  14    8   13 ar
  15    9   10 ar
  16    9   52 1
  17   10   11 ar
  18   10   53 1
  19   11   12 ar
  20   11   54 1
  21   12   13 ar
  22   12   55 1
  23   13   56 1
  24   14   15 ar
  25   14   57 1
  26   15   16 ar
  27   15   58 1
  28   16   17 ar
  29   16   19 1
  30   17   18 ar
  31   17   59 1
  32   18   60 1
  33   19   20 1
  34   19   61 1
  35   19   62 1
  36   20   21 1
  37   20   25 1
  38   21   22 1
  39   21   63 1
  40   21   64 1
  41   22   23 1
  42   22   65 1
  43   22   66 1
  44   23   24 1
  45   23   26 1
  46   23   67 1
  47   24   25 1
  48   24   68 1
  49   24   69 1
  50   25   70 1
  51   25   71 1
  52   26   27 1
  53   26   30 am
  54   27   28 ar
  55   27   31 ar
  56   28   29 1
  57   28   34 ar
  58   29   30 am
  59   29   72 1
  60   30   35 2
  61   31   32 ar
  62   31   73 1
  63   32   33 ar
  64   32   74 1
  65   33   34 ar
  66   33   75 1
  67   34   76 1
  68   36   37 ar
  69   36   77 1
  70   37   38 ar
  71   37   40 1
  72   38   39 ar
  73   38   78 1
  74   39   79 1
  75   40   41 2
  76   40   42 am
  77   42   43 1
  78   42   80 1
  79   43   44 1
  80   43   81 1
  81   43   82 1
  82   44   45 1
  83   44   83 1
  84   44   84 1
  85   45   46 1
  86   45   49 1
  87   46   47 1
  88   46   48 1
  89   46   85 1
  90   47   86 1
  91   47   87 1
  92   47   88 1
  93   48   89 1
  94   48   90 1
  95   48   91 1
  96   49   50 1
  97   49   51 1
  98   49   92 1
  99   50   93 1
 100   50   94 1
 101   50   95 1
 102   51   96 1
 103   51   97 1
 104   51   98 1

#	End of record

