#	Name: ASD05720076
#	Creating user name:	WinNT
#	Creation time:	15. 06. 2019 21:01

#	Modifying user name:	WinNT
#	Modification time:	15. 06. 2019 21:01

#	Program:	/corina/corina34_cracker 3.40 0067  02.08.2006

@<TRIPOS>MOLECULE
ASD05720076
  53   56    0    0    0
SMALL
NO_CHARGES


@<TRIPOS>ATOM
   1 N1            -0.0178     1.4650     0.0101 N.am    
   2 C2             0.0021    -0.0041     0.0020 C.3     
   3 C3             0.8803    -0.4916     1.1586 C.3     
   4 C4             2.2627     0.1563     1.0525 C.3     
   5 C5             2.1248     1.6768     1.1584 C.3     
   6 C6             1.2607     2.1889     0.0018 C.3     
   7 C7            -1.1868     2.1359     0.0193 C.2     
   8 O8            -2.2375     1.5256     0.0210 O.2     
   9 O9            -1.1902     3.4822     0.0266 O.3     
  10 O10            3.6953     0.9321     4.0927 O.3     
  11 C11            4.7120     0.9606     3.2239 C.2     
  12 N12            4.4906     0.2534     2.1073 N.am    
  13 C13            3.1537    -0.3549     2.1863 C.3     
  14 C14            2.6163     0.1163     3.5515 C.3     
  15 O15            5.7417     1.5722     3.4280 O.2     
  16 C16            5.8898    -0.7485    -1.0330 C.2     
  17 N17            5.0452    -0.6074    -0.0017 N.2     
  18 C18            5.3787     0.1177     1.0475 C.2     
  19 C19            6.6354     0.7563     1.0959 C.2     
  20 C20            7.4909     0.6173     0.0585 C.2     
  21 N21            7.1190    -0.1407    -1.0170 N.pl3   
  22 N22            7.7685    -0.4654    -2.2136 N.2     
  23 C23            6.9796    -1.2340    -2.9299 C.2     
  24 C24            5.7984    -1.4429    -2.2323 C.2     
  25 Br25           4.3287    -2.4826    -2.8112 Br      
  26 C26           -2.4856     4.1381     0.0364 C.3     
  27 C27           -3.2605     3.7182     1.2870 C.3     
  28 C28           -2.2890     5.6554     0.0437 C.3     
  29 C29           -3.2723     3.7317    -1.2114 C.3     
  30 H30           -1.0118    -0.3840     0.1278 H       
  31 H31            0.4128    -0.3587    -0.9433 H       
  32 H32            0.4202    -0.2139     2.1069 H       
  33 H33            0.9816    -1.5757     1.1066 H       
  34 H34            2.7120    -0.1016     0.0934 H       
  35 H35            1.6530     1.9341     2.1067 H       
  36 H36            3.1119     2.1361     1.1062 H       
  37 H37            1.7740     2.0131    -0.9436 H       
  38 H38            1.0772     3.2560     0.1274 H       
  39 H39            3.2253    -1.4421     2.1551 H       
  40 H40            2.4203    -0.7374     4.2003 H       
  41 H41            1.7139     0.7137     3.4213 H       
  42 H42            6.9116     1.3513     1.9538 H       
  43 H43            8.4570     1.0996     0.0788 H       
  44 H44            7.2143    -1.6410    -3.9024 H       
  45 H45           -2.7000     4.0076     2.1759 H       
  46 H46           -4.2329     4.2105     1.2943 H       
  47 H47           -3.4005     2.6372     1.2818 H       
  48 H48           -1.7370     5.9545    -0.8473 H       
  49 H49           -3.2615     6.1477     0.0510 H       
  50 H50           -1.7286     5.9448     0.9326 H       
  51 H51           -3.4124     2.6508    -1.2166 H       
  52 H52           -4.2448     4.2241    -1.2041 H       
  53 H53           -2.7203     4.0309    -2.1024 H       
@<TRIPOS>BOND
   1    1    2 1
   2    1    6 1
   3    1    7 am
   4    2    3 1
   5    2   30 1
   6    2   31 1
   7    3    4 1
   8    3   32 1
   9    3   33 1
  10    4    5 1
  11    4   13 1
  12    4   34 1
  13    5    6 1
  14    5   35 1
  15    5   36 1
  16    6   37 1
  17    6   38 1
  18    7    8 2
  19    7    9 1
  20    9   26 1
  21   10   11 1
  22   10   14 1
  23   11   12 am
  24   11   15 2
  25   12   13 1
  26   12   18 1
  27   13   14 1
  28   13   39 1
  29   14   40 1
  30   14   41 1
  31   16   17 1
  32   16   21 1
  33   16   24 2
  34   17   18 2
  35   18   19 1
  36   19   20 2
  37   19   42 1
  38   20   21 1
  39   20   43 1
  40   21   22 1
  41   22   23 2
  42   23   24 1
  43   23   44 1
  44   24   25 1
  45   26   27 1
  46   26   29 1
  47   26   28 1
  48   27   45 1
  49   27   46 1
  50   27   47 1
  51   28   48 1
  52   28   49 1
  53   28   50 1
  54   29   51 1
  55   29   52 1
  56   29   53 1

#	End of record

