#	Name: ASD01190008
#	Creating user name:	WinNT
#	Creation time:	15. 06. 2019 19:07

#	Modifying user name:	WinNT
#	Modification time:	15. 06. 2019 19:07

#	Program:	/corina/corina34_cracker 3.40 0067  02.08.2006

@<TRIPOS>MOLECULE
ASD01190008
  56   60    0    0    0
SMALL
NO_CHARGES


@<TRIPOS>ATOM
   1 C1             0.1885     1.2285     0.2829 C.ar    
   2 C2             0.0943    -0.1298     0.0146 C.ar    
   3 C3             1.2333    -0.8445    -0.3134 C.ar    
   4 C4             2.4690    -0.2146    -0.3768 C.ar    
   5 C5             2.5570     1.1377    -0.1189 C.ar    
   6 C6             1.4152     1.8536     0.2153 C.ar    
   7 C7             3.6674    -1.0607    -0.7176 C.3     
   8 C8             4.8614    -0.1950    -1.1181 C.3     
   9 C9             5.0337     0.8983    -0.0639 C.3     
  10 C10            3.8606     1.8771    -0.2025 C.3     
  11 C11            6.3032     1.6957    -0.2815 C.3     
  12 C12            6.3933     2.7074     0.8950 C.3     
  13 C13            5.2937     3.7333     0.7171 C.3     
  14 C14            3.9450     2.9964     0.8253 C.3     
  15 C15            7.6179     0.9240    -0.1243 C.3     
  16 C16            8.6418     2.0443     0.2057 C.3     
  17 C17            7.8283     3.2148     0.8126 C.3     
  18 O18            8.3166     3.5332     2.1173 O.3     
  19 O19           -1.1108    -0.7554     0.0740 O.3     
  20 C20           -1.3563    -1.5077     1.1644 C.2     
  21 C21           -2.6457    -2.2159     1.2980 C.ar    
  22 O22           -0.5173    -1.6035     2.0377 O.2     
  23 C23           -2.9034    -2.9964     2.4268 C.ar    
  24 C24           -4.1098    -3.6547     2.5453 C.ar    
  25 C25           -5.0634    -3.5429     1.5490 C.ar    
  26 C26           -4.8144    -2.7716     0.4276 C.ar    
  27 C27           -3.6146    -2.1033     0.2988 C.ar    
  28 C28            6.1977     1.9702     2.2213 C.3     
  29 H29           -0.6954     1.7938     0.5390 H       
  30 H30            1.1602    -1.9018    -0.5215 H       
  31 H31            1.4888     2.9107     0.4241 H       
  32 H32            3.9378    -1.6626     0.1499 H       
  33 H33            3.4131    -1.7230    -1.5451 H       
  34 H34            5.7616    -0.8081    -1.1626 H       
  35 H35            4.6765     0.2588    -2.0917 H       
  36 H36            5.0271     0.4541     0.9314 H       
  37 H37            3.9225     2.3372    -1.1887 H       
  38 H38            6.2648     2.2200    -1.2363 H       
  39 H39            5.3649     4.4905     1.4979 H       
  40 H40            5.3810     4.2024    -0.2629 H       
  41 H41            3.1342     3.7042     0.6529 H       
  42 H42            3.8457     2.5741     1.8252 H       
  43 H43            7.5500     0.2097     0.6963 H       
  44 H44            7.8832     0.4207    -1.0541 H       
  45 H45            9.3726     1.6821     0.9288 H       
  46 H46            9.1453     2.3709    -0.7042 H       
  47 H47            7.8832     4.0892     0.1642 H       
  48 H48            9.2391     3.8229     2.1321 H       
  49 H49           -2.1599    -3.0848     3.2050 H       
  50 H50           -4.3104    -4.2590     3.4177 H       
  51 H51           -6.0063    -4.0605     1.6468 H       
  52 H52           -5.5628    -2.6892    -0.3467 H       
  53 H53           -3.4214    -1.5015    -0.5770 H       
  54 H54            6.9157     1.1531     2.2921 H       
  55 H55            6.3530     2.6629     3.0484 H       
  56 H56            5.1852     1.5693     2.2684 H       
@<TRIPOS>BOND
   1    1    2 ar
   2    1    6 ar
   3    1   29 1
   4    2    3 ar
   5    2   19 1
   6    3    4 ar
   7    3   30 1
   8    4    5 ar
   9    4    7 1
  10    5    6 ar
  11    5   10 1
  12    6   31 1
  13    7    8 1
  14    7   32 1
  15    7   33 1
  16    8    9 1
  17    8   34 1
  18    8   35 1
  19    9   10 1
  20    9   11 1
  21    9   36 1
  22   10   14 1
  23   10   37 1
  24   11   12 1
  25   11   15 1
  26   11   38 1
  27   12   13 1
  28   12   28 1
  29   12   17 1
  30   13   14 1
  31   13   39 1
  32   13   40 1
  33   14   41 1
  34   14   42 1
  35   15   16 1
  36   15   43 1
  37   15   44 1
  38   16   17 1
  39   16   45 1
  40   16   46 1
  41   17   18 1
  42   17   47 1
  43   18   48 1
  44   19   20 1
  45   20   21 1
  46   20   22 2
  47   21   23 ar
  48   21   27 ar
  49   23   24 ar
  50   23   49 1
  51   24   25 ar
  52   24   50 1
  53   25   26 ar
  54   25   51 1
  55   26   27 ar
  56   26   52 1
  57   27   53 1
  58   28   54 1
  59   28   55 1
  60   28   56 1

#	End of record

