#	Name: ASD01917259
#	Creating user name:	WinNT
#	Creation time:	15. 06. 2019 20:08

#	Modifying user name:	WinNT
#	Modification time:	15. 06. 2019 20:08

#	Program:	/corina/corina34_cracker 3.40 0067  02.08.2006

@<TRIPOS>MOLECULE
ASD01917259
  45   45    0    0    0
SMALL
NO_CHARGES


@<TRIPOS>ATOM
   1 N1            -0.0169     1.3961     0.0097 N.2     
   2 N2             0.0021    -0.0041     0.0020 N.pl3   
   3 C3             1.3093    -0.4042    -0.0126 C.2     
   4 C4             2.0839     0.7387    -0.0139 C.2     
   5 C5             1.2196     1.8356     0.0003 C.2     
   6 C6             1.7982    -1.7906    -0.0240 C.2     
   7 O7             2.9931    -2.0136    -0.0367 O.2     
   8 O8             0.9214    -2.8147    -0.0204 O.3     
   9 O9             1.5968     3.1422     0.0033 O.3     
  10 C10            1.4752    -4.1568    -0.0322 C.3     
  11 C11            0.3364    -5.1786    -0.0260 C.3     
  12 C12           -1.1697    -0.8833     0.0085 C.3     
  13 C13           -1.9989    -0.6187     1.2668 C.3     
  14 C14           -2.0221    -0.6062    -1.2315 C.3     
  15 N15           -3.1285    -1.5648    -1.2878 N.am    
  16 O16           -5.0323    -2.3925    -2.3528 O.3     
  17 C17           -5.9491    -2.2760    -3.4727 C.3     
  18 C18           -5.1800    -2.4586    -4.7827 C.3     
  19 C19           -7.0297    -3.3534    -3.3613 C.3     
  20 C20           -6.6038    -0.8932    -3.4541 C.3     
  21 C21           -4.0155    -1.5115    -2.3011 C.2     
  22 O22           -3.8974    -0.6683    -3.1681 O.2     
  23 H23            3.1632     0.7774    -0.0237 H       
  24 H24            1.7145     3.5156     0.8875 H       
  25 H25            2.0801    -4.2924    -0.9287 H       
  26 H26            2.0974    -4.3009     0.8511 H       
  27 H27           -0.2858    -5.0345    -0.9093 H       
  28 H28            0.7522    -6.1861    -0.0348 H       
  29 H29           -0.2685    -5.0430     0.8706 H       
  30 H30           -0.8437    -1.9233     0.0002 H       
  31 H31           -1.3917    -0.8161     2.1502 H       
  32 H32           -2.3250     0.4213     1.2751 H       
  33 H33           -2.8708    -1.2729     1.2716 H       
  34 H34           -2.4213     0.4067    -1.1791 H       
  35 H35           -1.4070    -0.7084    -2.1255 H       
  36 H36           -3.2227    -2.2379    -0.5957 H       
  37 H37           -4.7136    -3.4437    -4.7959 H       
  38 H38           -5.8682    -2.3711    -5.6233 H       
  39 H39           -4.4101    -1.6910    -4.8620 H       
  40 H40           -7.5777    -3.2233    -2.4281 H       
  41 H41           -7.7180    -3.2659    -4.2020 H       
  42 H42           -6.5633    -4.3385    -3.3746 H       
  43 H43           -5.8339    -0.1257    -3.5335 H       
  44 H44           -7.2920    -0.8058    -4.2948 H       
  45 H45           -7.1517    -0.7632    -2.5209 H       
@<TRIPOS>BOND
   1    1    2 1
   2    1    5 2
   3    2    3 1
   4    2   12 1
   5    3    4 2
   6    3    6 1
   7    4    5 1
   8    4   23 1
   9    5    9 1
  10    6    7 2
  11    6    8 1
  12    8   10 1
  13    9   24 1
  14   10   11 1
  15   10   25 1
  16   10   26 1
  17   11   27 1
  18   11   28 1
  19   11   29 1
  20   12   13 1
  21   12   14 1
  22   12   30 1
  23   13   31 1
  24   13   32 1
  25   13   33 1
  26   14   15 1
  27   14   34 1
  28   14   35 1
  29   15   21 am
  30   15   36 1
  31   16   17 1
  32   16   21 1
  33   17   18 1
  34   17   19 1
  35   17   20 1
  36   18   37 1
  37   18   38 1
  38   18   39 1
  39   19   40 1
  40   19   41 1
  41   19   42 1
  42   20   43 1
  43   20   44 1
  44   20   45 1
  45   21   22 2

#	End of record

