#	Name: ASD03091589
#	Creating user name:	WinNT
#	Creation time:	15. 06. 2019 20:31

#	Modifying user name:	WinNT
#	Modification time:	15. 06. 2019 20:31

#	Program:	/corina/corina34_cracker 3.40 0067  02.08.2006

@<TRIPOS>MOLECULE
ASD03091589
  15   15    0    0    0
SMALL
NO_CHARGES


@<TRIPOS>ATOM
   1 C1            -0.0178     1.4637     0.0101 C.2     
   2 C2             0.0021    -0.0041     0.0020 C.ar    
   3 C3            -1.2017    -0.7270     0.0096 C.ar    
   4 C4            -1.1708    -2.1138     0.0014 C.ar    
   5 C5             0.0394    -2.7802    -0.0138 C.ar    
   6 C6             1.2320    -2.0710    -0.0209 C.ar    
   7 C7             1.2214    -0.6919    -0.0192 C.ar    
   8 O8             1.0243     2.0844     0.0035 O.2     
   9 O9            -2.3897    -0.0721     0.0254 O.3     
  10 F10            2.4089    -2.7344    -0.0352 F       
  11 Br11          -2.7879    -3.0939     0.0116 Br      
  12 H12           -0.9604     1.9909     0.0174 H       
  13 H13            0.0572    -3.8600    -0.0197 H       
  14 H14            2.1518    -0.1436    -0.0293 H       
  15 H15           -2.7429     0.1231    -0.8534 H       
@<TRIPOS>BOND
   1    1    2 1
   2    1    8 2
   3    1   12 1
   4    2    3 ar
   5    2    7 ar
   6    3    4 ar
   7    3    9 1
   8    4    5 ar
   9    4   11 1
  10    5    6 ar
  11    5   13 1
  12    6    7 ar
  13    6   10 1
  14    7   14 1
  15    9   15 1

#	End of record

