#	Name: ASD05060003
#	Creating user name:	WinNT
#	Creation time:	15. 06. 2019 20:56

#	Modifying user name:	WinNT
#	Modification time:	15. 06. 2019 20:56

#	Program:	/corina/corina34_cracker 3.40 0067  02.08.2006

@<TRIPOS>MOLECULE
ASD05060003
 131  130    0    0    0
SMALL
NO_CHARGES


@<TRIPOS>ATOM
   1 C1             0.5305    -1.4612    -6.0893 C.2     
   2 O2             0.4536    -2.5350    -5.5308 O.2     
   3 N3             2.4118    -2.4400    -7.2756 N.3     
   4 C4             1.5990    -1.2256    -7.1255 C.3     
   5 C5             0.9438    -0.8816    -8.4646 C.3     
   6 C6            -2.6026     0.1733    -5.1897 C.2     
   7 O7            -2.3934     1.2453    -5.7168 O.2     
   8 N8            -0.3432    -0.4804    -5.7871 N.am    
   9 C9            -1.4521    -0.7450    -4.8671 C.3     
  10 C10           -0.9913    -0.4993    -3.4289 C.3     
  11 C11           -2.1057    -0.9009    -2.4606 C.3     
  12 C12           -2.3373    -2.4108    -2.5476 C.3     
  13 C13           -1.6998    -0.5286    -1.0332 C.3     
  14 C14           -6.1132     0.3875    -4.1933 C.2     
  15 O15           -6.0105    -0.5467    -3.4267 O.2     
  16 N16           -3.8640    -0.1968    -4.8925 N.am    
  17 C17           -4.9724     0.7351    -5.1146 C.3     
  18 C18           -5.4410     0.6332    -6.5675 C.3     
  19 C19           -4.3224     1.1055    -7.4984 C.3     
  20 C20           -4.7909     1.0036    -8.9514 C.3     
  21 C21           -3.6723     1.4759    -9.8823 C.3     
  22 N22           -4.1222     1.3781   -11.2773 N.3     
  23 C23           -9.6510     1.2671    -3.9219 C.2     
  24 O24           -9.6474     1.8421    -4.9897 O.2     
  25 N25           -7.2476     1.1147    -4.2213 N.am    
  26 C26           -8.3566     0.7768    -3.3257 C.3     
  27 C27           -8.1361     1.4440    -1.9666 C.3     
  28 C28           -8.0714     2.9618    -2.1481 C.3     
  29 C29           -7.9760     3.6357    -0.7778 C.3     
  30 C30           -6.8220     0.9462    -1.3614 C.3     
  31 C31          -12.3431     2.9086    -3.6595 C.2     
  32 O32          -11.5485     3.5723    -3.0278 O.2     
  33 N33          -10.8125     1.0665    -3.2684 N.am    
  34 C34          -12.0811     1.4437    -3.8967 C.3     
  35 C35          -13.2165     0.6175    -3.2891 C.3     
  36 C36          -13.0192    -0.8365    -3.6325 C.2     
  37 O37          -12.1280    -1.1654    -4.3791 O.2     
  38 O38          -13.8335    -1.7663    -3.1088 O.3     
  39 C39          -14.4555     4.9414    -2.4859 C.2     
  40 O40          -14.6640     3.9229    -1.8613 O.2     
  41 N41          -13.4605     3.4812    -4.1493 N.am    
  42 C42          -13.7706     4.8762    -3.8267 C.3     
  43 C43          -14.6948     5.4547    -4.9001 C.3     
  44 C44          -13.9640     5.5073    -6.2170 C.2     
  45 O45          -12.8443     5.0501    -6.3078 O.2     
  46 N46          -14.5546     6.0626    -7.2937 N.am    
  47 C47          -16.3254     7.3948    -0.5401 C.2     
  48 O48          -16.1667     8.3447    -1.2773 O.2     
  49 N49          -14.8362     6.1316    -1.9808 N.am    
  50 C50          -15.4018     6.2076    -0.6315 C.3     
  51 C51          -14.2710     6.3615     0.3875 C.3     
  52 C52          -14.8514     6.3256     1.8027 C.3     
  53 C53          -15.4469     4.9428     2.0748 C.3     
  54 C54          -13.7416     6.6114     2.8165 C.3     
  55 C55          -17.5033     9.5567     1.4616 C.2     
  56 O56          -16.4375     9.2786     1.9583 O.2     
  57 N57          -17.3277     7.4011     0.3609 N.am    
  58 C58          -18.1677     8.5916     0.5139 C.3     
  59 C59          -19.5321     8.1845     1.0739 C.3     
  60 C60          -20.2484     7.3174     0.0709 C.2     
  61 O61          -19.7217     7.0522    -0.9837 O.2     
  62 O62          -21.4716     6.8397     0.3491 O.3     
  63 O63          -18.0956    10.7252     1.7540 O.3     
  64 H64            1.8348    -3.2352    -7.5053 H       
  65 H65            3.1360    -2.3074    -7.9655 H       
  66 H66            2.2356    -0.3991    -6.8095 H       
  67 H67            0.3073    -1.7081    -8.7806 H       
  68 H68            0.3407     0.0195    -8.3532 H       
  69 H69            1.7167    -0.7112    -9.2141 H       
  70 H70           -0.2378     0.4007    -6.1789 H       
  71 H71           -1.7733    -1.7812    -4.9737 H       
  72 H72           -0.1013    -1.0950    -3.2258 H       
  73 H73           -0.7590     0.5575    -3.2974 H       
  74 H74           -3.0238    -0.3766    -2.7258 H       
  75 H75           -1.4357    -2.9355    -2.2314 H       
  76 H76           -3.1666    -2.6892    -1.8973 H       
  77 H77           -2.5746    -2.6834    -3.5759 H       
  78 H78           -1.5348     0.5471    -0.9713 H       
  79 H79           -2.4938    -0.8147    -0.3434 H       
  80 H80           -0.7817    -1.0529    -0.7681 H       
  81 H81           -4.0380    -1.0802    -4.5315 H       
  82 H82           -4.6381     1.7524    -4.9111 H       
  83 H83           -5.6914    -0.4026    -6.7968 H       
  84 H84           -6.3213     1.2600    -6.7102 H       
  85 H85           -4.0719     2.1412    -7.2692 H       
  86 H86           -3.4421     0.4787    -7.3558 H       
  87 H87           -5.0414    -0.0321    -9.1806 H       
  88 H88           -5.6712     1.6304    -9.0940 H       
  89 H89           -3.4219     2.5117    -9.6530 H       
  90 H90           -2.7921     0.8491    -9.7396 H       
  91 H91           -3.4005     1.6846   -11.9123 H       
  92 H92           -4.4215     0.4396   -11.4958 H       
  93 H93           -7.3297     1.8619    -4.8345 H       
  94 H94           -8.4027    -0.3045    -3.1965 H       
  95 H95           -8.9612     1.1926    -1.3003 H       
  96 H96           -7.1943     3.2197    -2.7417 H       
  97 H97           -8.9703     3.3052    -2.6601 H       
  98 H98           -7.0770     3.2923    -0.2659 H       
  99 H99           -7.9299     4.7170    -0.9071 H       
 100 H100          -8.8530     3.3778    -0.1842 H       
 101 H101          -6.6648     1.4215    -0.3932 H       
 102 H102          -6.8681    -0.1351    -1.2322 H       
 103 H103          -5.9968     1.1976    -2.0278 H       
 104 H104         -10.8085     0.6725    -2.3820 H       
 105 H105         -12.0264     1.2532    -4.9685 H       
 106 H106         -13.2146     0.7386    -2.2059 H       
 107 H107         -14.1701     0.9596    -3.6913 H       
 108 H108         -13.6678    -2.6857    -3.3583 H       
 109 H109         -14.0595     2.9697    -4.7155 H       
 110 H110         -12.8476     5.4549    -3.7917 H       
 111 H111         -15.5770     4.8222    -4.9992 H       
 112 H112         -14.9996     6.4611    -4.6132 H       
 113 H113         -15.4500     6.4283    -7.2210 H       
 114 H114         -14.0841     6.0964    -8.1413 H       
 115 H115         -14.7358     6.9378    -2.5107 H       
 116 H116         -15.9601     5.2957    -0.4197 H       
 117 H117         -13.5589     5.5452     0.2661 H       
 118 H118         -13.7640     7.3129     0.2268 H       
 119 H119         -15.6312     7.0816     1.8949 H       
 120 H120         -15.9112     4.9348     3.0609 H       
 121 H121         -16.1975     4.7151     1.3179 H       
 122 H122         -14.6563     4.1933     2.0394 H       
 123 H123         -13.3173     7.5966     2.6226 H       
 124 H124         -14.1551     6.5859     3.8247 H       
 125 H125         -12.9618     5.8554     2.7243 H       
 126 H126         -17.4929     6.6173     0.9080 H       
 127 H127         -18.3012     9.0692    -0.4567 H       
 128 H128         -19.3931     7.6286     2.0011 H       
 129 H129         -20.1250     9.0776     1.2712 H       
 130 H130         -21.8912     6.2880    -0.3252 H       
 131 H131         -17.6312    11.3115     2.3669 H       
@<TRIPOS>BOND
   1    1    2 2
   2    1    4 1
   3    1    8 am
   4    3    4 1
   5    3   64 1
   6    3   65 1
   7    4    5 1
   8    4   66 1
   9    5   67 1
  10    5   68 1
  11    5   69 1
  12    6    7 2
  13    6    9 1
  14    6   16 am
  15    8    9 1
  16    8   70 1
  17    9   10 1
  18    9   71 1
  19   10   11 1
  20   10   72 1
  21   10   73 1
  22   11   12 1
  23   11   13 1
  24   11   74 1
  25   12   75 1
  26   12   76 1
  27   12   77 1
  28   13   78 1
  29   13   79 1
  30   13   80 1
  31   14   15 2
  32   14   17 1
  33   14   25 am
  34   16   17 1
  35   16   81 1
  36   17   18 1
  37   17   82 1
  38   18   19 1
  39   18   83 1
  40   18   84 1
  41   19   20 1
  42   19   85 1
  43   19   86 1
  44   20   21 1
  45   20   87 1
  46   20   88 1
  47   21   22 1
  48   21   89 1
  49   21   90 1
  50   22   91 1
  51   22   92 1
  52   23   24 2
  53   23   26 1
  54   23   33 am
  55   25   26 1
  56   25   93 1
  57   26   27 1
  58   26   94 1
  59   27   28 1
  60   27   30 1
  61   27   95 1
  62   28   29 1
  63   28   96 1
  64   28   97 1
  65   29   98 1
  66   29   99 1
  67   29  100 1
  68   30  101 1
  69   30  102 1
  70   30  103 1
  71   31   32 2
  72   31   34 1
  73   31   41 am
  74   33   34 1
  75   33  104 1
  76   34   35 1
  77   34  105 1
  78   35   36 1
  79   35  106 1
  80   35  107 1
  81   36   37 2
  82   36   38 1
  83   38  108 1
  84   39   40 2
  85   39   42 1
  86   39   49 am
  87   41   42 1
  88   41  109 1
  89   42   43 1
  90   42  110 1
  91   43   44 1
  92   43  111 1
  93   43  112 1
  94   44   45 2
  95   44   46 am
  96   46  113 1
  97   46  114 1
  98   47   48 2
  99   47   50 1
 100   47   57 am
 101   49   50 1
 102   49  115 1
 103   50   51 1
 104   50  116 1
 105   51   52 1
 106   51  117 1
 107   51  118 1
 108   52   53 1
 109   52   54 1
 110   52  119 1
 111   53  120 1
 112   53  121 1
 113   53  122 1
 114   54  123 1
 115   54  124 1
 116   54  125 1
 117   55   56 2
 118   55   58 1
 119   55   63 1
 120   57   58 1
 121   57  126 1
 122   58   59 1
 123   58  127 1
 124   59   60 1
 125   59  128 1
 126   59  129 1
 127   60   61 2
 128   60   62 1
 129   62  130 1
 130   63  131 1

#	End of record

