#	Name: ASD01200100
#	Creating user name:	WinNT
#	Creation time:	15. 06. 2019 19:08

#	Modifying user name:	WinNT
#	Modification time:	15. 06. 2019 19:08

#	Program:	/corina/corina34_cracker 3.40 0067  02.08.2006

@<TRIPOS>MOLECULE
ASD01200100
  58   62    0    0    0
SMALL
NO_CHARGES


@<TRIPOS>ATOM
   1 N1            -0.0240     0.9940     0.9425 N.am    
   2 C2            -0.2672    -0.2793     1.2979 C.2     
   3 C3             0.9475    -0.8706     1.9786 C.3     
   4 C4             1.8084     0.3582     2.3525 C.3     
   5 C5             1.3357     1.4012     1.3156 C.3     
   6 O6            -1.3091    -0.8683     1.1019 O.2     
   7 C7            -0.9899     1.8617     0.2641 C.3     
   8 C8            -5.2957     3.6616     3.9931 C.2     
   9 N9            -4.2400     4.4353     4.0487 N.2     
  10 C10           -3.2983     3.9840     3.1863 C.ar    
  11 C11           -3.8255     2.8425     2.5553 C.ar    
  12 N12           -5.0894     2.6605     3.0834 N.pl3   
  13 C13           -2.0126     4.4230     2.8529 C.ar    
  14 C14           -1.2766     3.7331     1.9106 C.ar    
  15 C15           -1.8060     2.6040     1.2908 C.ar    
  16 C16           -3.0715     2.1614     1.6098 C.ar    
  17 C17           -6.5246     3.8399     4.7982 C.ar    
  18 C18           -6.6132     4.9001     5.6996 C.ar    
  19 C19           -7.7695     5.0538     6.4451 C.ar    
  20 C20           -8.7999     4.1422     6.2649 C.ar    
  21 C21           -8.6444     3.1135     5.3528 C.ar    
  22 N22           -7.5361     2.9924     4.6523 N.ar    
  23 O23           -0.0271     4.1589     1.5853 O.3     
  24 C24            0.4956     5.1982     2.2874 C.ar    
  25 C25            1.1970     4.9614     3.4610 C.ar    
  26 C26            1.7277     6.0197     4.1726 C.ar    
  27 C27            1.5602     7.3143     3.7166 C.ar    
  28 C28            0.8617     7.5531     2.5474 C.ar    
  29 C29            0.3338     6.4979     1.8290 C.ar    
  30 S30            2.2375     8.6621     4.6272 S.o2    
  31 O31            1.4112     9.7664     4.2854 O.2     
  32 O32            2.3049     8.1834     5.9635 O.2     
  33 C33            3.9039     8.8782     3.9438 C.3     
  34 C34            4.6036    10.0341     4.6616 C.3     
  35 H35            0.6542    -1.4178     2.8746 H       
  36 H36            1.4897    -1.5219     1.2931 H       
  37 H37            1.5922     0.6917     3.3675 H       
  38 H38            2.8699     0.1420     2.2323 H       
  39 H39            1.9871     1.3863     0.4418 H       
  40 H40            1.3228     2.3962     1.7604 H       
  41 H41           -0.4579     2.5769    -0.3634 H       
  42 H42           -1.6504     1.2554    -0.3558 H       
  43 H43           -5.7135     1.9546     2.8527 H       
  44 H44           -1.5975     5.2980     3.3308 H       
  45 H45           -3.4757     1.2849     1.1253 H       
  46 H46           -5.7913     5.5912     5.8148 H       
  47 H47           -7.8672     5.8650     7.1515 H       
  48 H48           -9.7146     4.2346     6.8316 H       
  49 H49           -9.4447     2.4024     5.2104 H       
  50 H50            1.3275     3.9505     3.8180 H       
  51 H51            2.2737     5.8359     5.0861 H       
  52 H52            0.7320     8.5652     2.1935 H       
  53 H53           -0.2081     6.6846     0.9137 H       
  54 H54            4.4768     7.9619     4.0864 H       
  55 H55            3.8338     9.1009     2.8790 H       
  56 H56            5.6048    10.1640     4.2509 H       
  57 H57            4.0307    10.9504     4.5189 H       
  58 H58            4.6736     9.8115     5.7263 H       
@<TRIPOS>BOND
   1    1    2 am
   2    1    5 1
   3    1    7 1
   4    2    3 1
   5    2    6 2
   6    3    4 1
   7    3   35 1
   8    3   36 1
   9    4    5 1
  10    4   37 1
  11    4   38 1
  12    5   39 1
  13    5   40 1
  14    7   15 1
  15    7   41 1
  16    7   42 1
  17    8    9 2
  18    8   12 1
  19    8   17 1
  20    9   10 1
  21   10   11 ar
  22   10   13 ar
  23   11   12 1
  24   11   16 ar
  25   12   43 1
  26   13   14 ar
  27   13   44 1
  28   14   15 ar
  29   14   23 1
  30   15   16 ar
  31   16   45 1
  32   17   18 ar
  33   17   22 ar
  34   18   19 ar
  35   18   46 1
  36   19   20 ar
  37   19   47 1
  38   20   21 ar
  39   20   48 1
  40   21   22 ar
  41   21   49 1
  42   23   24 1
  43   24   25 ar
  44   24   29 ar
  45   25   26 ar
  46   25   50 1
  47   26   27 ar
  48   26   51 1
  49   27   28 ar
  50   27   30 1
  51   28   29 ar
  52   28   52 1
  53   29   53 1
  54   30   31 2
  55   30   32 2
  56   30   33 1
  57   33   34 1
  58   33   54 1
  59   33   55 1
  60   34   56 1
  61   34   57 1
  62   34   58 1

#	End of record

