#	Name: ASD01912881
#	Creating user name:	WinNT
#	Creation time:	15. 06. 2019 20:00

#	Modifying user name:	WinNT
#	Modification time:	15. 06. 2019 20:00

#	Program:	/corina/corina34_cracker 3.40 0067  02.08.2006

@<TRIPOS>MOLECULE
ASD01912881
  41   45    0    0    0
SMALL
NO_CHARGES


@<TRIPOS>ATOM
   1 C1            -0.0165     1.3669     0.0096 C.2     
   2 N2             0.0021    -0.0041     0.0020 N.pl3   
   3 C3            -1.2024    -0.6924     0.0094 C.2     
   4 C4            -2.3628    -0.0506     0.0235 C.2     
   5 N5            -2.4358     1.3312     0.0317 N.am    
   6 C6            -1.3018     2.0670     0.0309 C.2     
   7 C7             1.3015     1.7837    -0.0008 C.2     
   8 C8             2.0550     0.6109    -0.0143 C.2     
   9 N9             1.2244    -0.4045    -0.0118 N.2     
  10 O10           -1.3485     3.2837     0.0384 O.2     
  11 C11           -3.6689     1.9594     0.0459 C.2     
  12 C12            3.5595     0.5247    -0.0291 C.3     
  13 O13            4.1121     1.8425    -0.0273 O.3     
  14 C14            5.4673     1.9432    -0.0397 C.ar    
  15 C15            6.0713     3.1921    -0.0388 C.ar    
  16 C16            7.4491     3.2918    -0.0514 C.ar    
  17 C17            8.2261     2.1482    -0.0650 C.ar    
  18 C18            7.6265     0.9023    -0.0664 C.ar    
  19 C19            6.2492     0.7972    -0.0476 C.ar    
  20 O20           -4.8555     1.3270     0.0529 O.3     
  21 C21           -5.8319     2.2626     0.0673 C.ar    
  22 C22           -5.1859     3.5083     0.0689 C.ar    
  23 N23           -3.8495     3.2539     0.0602 N.2     
  24 C24           -7.2164     2.2043     0.0796 C.ar    
  25 C25           -7.9539     3.3706     0.0932 C.ar    
  26 C26           -7.3195     4.6037     0.0949 C.ar    
  27 C27           -5.9444     4.6802     0.0829 C.ar    
  28 H28           -1.1950    -1.7723     0.0031 H       
  29 H29           -3.2783    -0.6235     0.0285 H       
  30 H30            1.6685     2.7994     0.0006 H       
  31 H31            3.9013    -0.0138     0.8548 H       
  32 H32            3.8843    -0.0043    -0.9251 H       
  33 H33            5.4649     4.0857    -0.0285 H       
  34 H34            7.9198     4.2639    -0.0511 H       
  35 H35            9.3030     2.2282    -0.0749 H       
  36 H36            8.2356     0.0105    -0.0778 H       
  37 H37            5.7814    -0.1762    -0.0487 H       
  38 H38           -7.7175     1.2476     0.0781 H       
  39 H39           -9.0328     3.3227     0.1024 H       
  40 H40           -7.9074     5.5097     0.1052 H       
  41 H41           -5.4548     5.6429     0.0838 H       
@<TRIPOS>BOND
   1    1    2 1
   2    1    7 2
   3    1    6 1
   4    2    3 1
   5    2    9 1
   6    3    4 2
   7    3   28 1
   8    4    5 1
   9    4   29 1
  10    5    6 am
  11    5   11 1
  12    6   10 2
  13    7    8 1
  14    7   30 1
  15    8    9 2
  16    8   12 1
  17   11   20 1
  18   11   23 2
  19   12   13 1
  20   12   31 1
  21   12   32 1
  22   13   14 1
  23   14   15 ar
  24   14   19 ar
  25   15   16 ar
  26   15   33 1
  27   16   17 ar
  28   16   34 1
  29   17   18 ar
  30   17   35 1
  31   18   19 ar
  32   18   36 1
  33   19   37 1
  34   20   21 1
  35   21   22 ar
  36   21   24 ar
  37   22   23 1
  38   22   27 ar
  39   24   25 ar
  40   24   38 1
  41   25   26 ar
  42   25   39 1
  43   26   27 ar
  44   26   40 1
  45   27   41 1

#	End of record

