#	Name: ASD05250049
#	Creating user name:	WinNT
#	Creation time:	15. 06. 2019 20:58

#	Modifying user name:	WinNT
#	Modification time:	15. 06. 2019 20:58

#	Program:	/corina/corina34_cracker 3.40 0067  02.08.2006

@<TRIPOS>MOLECULE
ASD05250049
  46   49    0    0    0
SMALL
NO_CHARGES


@<TRIPOS>ATOM
   1 N1             0.6178    -0.1496    -1.2867 N.3     
   2 C2            -0.2001     0.4583    -2.3455 C.3     
   3 C3            -1.5857    -0.1916    -2.3526 C.3     
   4 N4            -2.2148    -0.0121    -1.0367 N.3     
   5 C5            -1.3969    -0.6200     0.0221 C.3     
   6 C6            -0.0113     0.0298     0.0292 C.3     
   7 C7            -3.5113    -0.5302    -1.0271 C.ar    
   8 C8            -3.7124    -1.8982    -1.2179 C.ar    
   9 C9            -4.9877    -2.4166    -1.2079 C.ar    
  10 C10           -6.0811    -1.5699    -1.0075 C.ar    
  11 C11           -5.8885    -0.1893    -0.8208 C.ar    
  12 C12           -4.5906     0.3179    -0.8223 C.ar    
  13 C13           -7.4534    -2.1039    -0.9848 C.2     
  14 C14           -8.5432    -1.1398    -0.7617 C.2     
  15 C15           -8.2321     0.1926    -0.5977 C.2     
  16 N16           -6.9707     0.6523    -0.6353 N.pl3   
  17 C17           -6.7447     2.0975    -0.4810 C.3     
  18 C18           -7.8299     2.6911     0.4195 C.3     
  19 C19           -5.3707     2.3288     0.1537 C.3     
  20 O20           -4.3825     1.6500    -0.6262 O.3     
  21 C21            1.9819     0.3954    -1.2968 C.3     
  22 F22           -2.6539    -2.7148    -1.4131 F       
  23 O23           -7.6769    -3.2915    -1.1441 O.2     
  24 C24           -9.9407    -1.5910    -0.7151 C.2     
  25 O25          -10.8333    -0.7867    -0.5303 O.2     
  26 O26          -10.2331    -2.8970    -0.8773 O.3     
  27 H27           -0.3008     1.5274    -2.1586 H       
  28 H28            0.2802     0.3013    -3.3113 H       
  29 H29           -2.2036     0.2778    -3.1181 H       
  30 H30           -1.4872    -1.2558    -2.5665 H       
  31 H31           -1.8772    -0.4630     0.9880 H       
  32 H32           -1.2962    -1.6892    -0.1648 H       
  33 H33            0.6066    -0.4396     0.7947 H       
  34 H34           -0.1098     1.0941     0.2431 H       
  35 H35           -5.1428    -3.4753    -1.3549 H       
  36 H36           -9.0351     0.8957    -0.4328 H       
  37 H37           -6.7794     2.5777    -1.4589 H       
  38 H38           -7.7929     2.2114     1.3975 H       
  39 H39           -7.6618     3.7620     0.5334 H       
  40 H40           -8.8080     2.5227    -0.0310 H       
  41 H41           -5.1523     3.3965     0.1739 H       
  42 H42           -5.3656     1.9326     1.1691 H       
  43 H43            1.9440     1.4726    -1.1341 H       
  44 H44            2.5656    -0.0715    -0.5035 H       
  45 H45            2.4483     0.1897    -2.2602 H       
  46 H46          -11.1667    -3.1459    -0.8388 H       
@<TRIPOS>BOND
   1    1    2 1
   2    1   21 1
   3    1    6 1
   4    2    3 1
   5    2   27 1
   6    2   28 1
   7    3    4 1
   8    3   29 1
   9    3   30 1
  10    4    5 1
  11    4    7 1
  12    5    6 1
  13    5   31 1
  14    5   32 1
  15    6   33 1
  16    6   34 1
  17    7    8 ar
  18    7   12 ar
  19    8    9 ar
  20    8   22 1
  21    9   10 ar
  22    9   35 1
  23   10   11 ar
  24   10   13 1
  25   11   12 ar
  26   11   16 1
  27   12   20 1
  28   13   14 1
  29   13   23 2
  30   14   15 2
  31   14   24 1
  32   15   16 1
  33   15   36 1
  34   16   17 1
  35   17   19 1
  36   17   18 1
  37   17   37 1
  38   18   38 1
  39   18   39 1
  40   18   40 1
  41   19   20 1
  42   19   41 1
  43   19   42 1
  44   21   43 1
  45   21   44 1
  46   21   45 1
  47   24   25 2
  48   24   26 1
  49   26   46 1

#	End of record

