#	Name: ASD04590654
#	Creating user name:	WinNT
#	Creation time:	15. 06. 2019 20:51

#	Modifying user name:	WinNT
#	Modification time:	15. 06. 2019 20:51

#	Program:	/corina/corina34_cracker 3.40 0067  02.08.2006

@<TRIPOS>MOLECULE
ASD04590654
  57   62    0    0    0
SMALL
NO_CHARGES


@<TRIPOS>ATOM
   1 N1            -0.0159     1.3226     0.0093 N.ar    
   2 C2             0.0021    -0.0041     0.0020 C.ar    
   3 N3             1.1298    -0.6960    -0.0125 N.ar    
   4 C4             2.3053    -0.0746    -0.0204 C.ar    
   5 C5             2.3200     1.3349    -0.0129 C.ar    
   6 C6             1.1087     2.0191     0.0023 C.ar    
   7 N7             3.6032    -0.5218    -0.0351 N.pl3   
   8 C8             4.4830     0.5468    -0.0378 C.ar    
   9 C9             3.7326     1.7361    -0.0243 C.ar    
  10 C10            5.8687     0.6384    -0.0506 C.ar    
  11 N11            6.4627     1.8144    -0.0499 N.ar    
  12 C12            5.7871     2.9499    -0.0374 C.ar    
  13 C13            4.4084     2.9557    -0.0242 C.ar    
  14 N14           -1.2022    -0.6889     0.0103 N.pl3   
  15 C15           -2.3997     0.0130     0.0260 C.2     
  16 C16            4.0010    -1.9317    -0.0461 C.3     
  17 N17           -3.5779    -0.5283     0.0348 N.2     
  18 C18           -4.6122     0.2925     0.0499 C.2     
  19 C19           -4.2927     1.5875     0.0541 C.2     
  20 S20           -2.5358     1.7172     0.0439 S.3     
  21 C21           -6.0383    -0.1945     0.0607 C.3     
  22 N22           -6.4759    -0.4590    -1.3164 N.3     
  23 C23           -7.7697    -1.1556    -1.3333 C.3     
  24 C24           -8.2273    -1.3411    -2.7820 C.3     
  25 N25           -7.2116    -2.1049    -3.5198 N.3     
  26 C26           -5.9177    -1.4083    -3.5029 C.3     
  27 C27           -5.4601    -1.2228    -2.0543 C.3     
  28 C28            3.4601    -2.6418     1.2073 C.3     
  29 C29            2.5262    -3.7642     0.7095 C.3     
  30 C30            3.0181    -4.0572    -0.7297 C.3     
  31 C31            3.3770    -2.6475    -1.2618 C.3     
  32 H32            1.0870     3.0989     0.0080 H       
  33 H33            6.4647    -0.2622    -0.0607 H       
  34 H34            6.3229     3.8876    -0.0375 H       
  35 H35            3.8623     3.8874    -0.0140 H       
  36 H36           -1.2086    -1.6589     0.0052 H       
  37 H37            5.0874    -2.0126    -0.0814 H       
  38 H38           -4.9895     2.4126     0.0658 H       
  39 H39           -6.1045    -1.1120     0.6455 H       
  40 H40           -6.6789     0.5669     0.5056 H       
  41 H41           -7.6640    -2.1306    -0.8576 H       
  42 H42           -8.5081    -0.5645    -0.7916 H       
  43 H43           -9.1728    -1.8833    -2.7981 H       
  44 H44           -8.3593    -0.3654    -3.2495 H       
  45 H45           -7.1236    -3.0400    -3.1510 H       
  46 H46           -5.1793    -1.9994    -4.0447 H       
  47 H47           -6.0234    -0.4333    -3.9786 H       
  48 H48           -4.5146    -0.6806    -2.0382 H       
  49 H49           -5.3282    -2.1985    -1.5868 H       
  50 H50            4.2839    -3.0679     1.7798 H       
  51 H51            2.9016    -1.9373     1.8237 H       
  52 H52            2.6281    -4.6508     1.3353 H       
  53 H53            1.4915    -3.4219     0.6967 H       
  54 H54            3.8984    -4.6997    -0.7138 H       
  55 H55            2.2229    -4.5043    -1.3262 H       
  56 H56            2.4796    -2.1249    -1.5930 H       
  57 H57            4.0997    -2.7191    -2.0747 H       
@<TRIPOS>BOND
   1    1    2 ar
   2    1    6 ar
   3    2    3 ar
   4    2   14 1
   5    3    4 ar
   6    4    5 ar
   7    4    7 1
   8    5    6 ar
   9    5    9 1
  10    6   32 1
  11    7    8 1
  12    7   16 1
  13    8    9 ar
  14    8   10 ar
  15    9   13 ar
  16   10   11 ar
  17   10   33 1
  18   11   12 ar
  19   12   13 ar
  20   12   34 1
  21   13   35 1
  22   14   15 1
  23   14   36 1
  24   15   17 2
  25   15   20 1
  26   16   28 1
  27   16   31 1
  28   16   37 1
  29   17   18 1
  30   18   19 2
  31   18   21 1
  32   19   20 1
  33   19   38 1
  34   21   22 1
  35   21   39 1
  36   21   40 1
  37   22   23 1
  38   22   27 1
  39   23   24 1
  40   23   41 1
  41   23   42 1
  42   24   25 1
  43   24   43 1
  44   24   44 1
  45   25   26 1
  46   25   45 1
  47   26   27 1
  48   26   46 1
  49   26   47 1
  50   27   48 1
  51   27   49 1
  52   28   29 1
  53   28   50 1
  54   28   51 1
  55   29   30 1
  56   29   52 1
  57   29   53 1
  58   30   31 1
  59   30   54 1
  60   30   55 1
  61   31   56 1
  62   31   57 1

#	End of record

