#	Name: ASD01478033
#	Creating user name:	WinNT
#	Creation time:	15. 06. 2019 19:21

#	Modifying user name:	WinNT
#	Modification time:	15. 06. 2019 19:21

#	Program:	/corina/corina34_cracker 3.40 0067  02.08.2006

@<TRIPOS>MOLECULE
ASD01478033
  90   92    0    0    0
SMALL
NO_CHARGES


@<TRIPOS>ATOM
   1 C1             2.0398     0.0585    -0.3647 C.3     
   2 C2             0.4535    -1.5885     0.3187 C.2     
   3 O3             1.6023    -1.3257    -0.3323 O.3     
   4 N4            -0.0088    -2.8527     0.3862 N.am    
   5 O5            -0.1666    -0.6860     0.8454 O.2     
   6 C6            -2.4425    -2.9120     0.1520 C.3     
   7 C7            -1.2588    -3.1387     1.0946 C.3     
   8 C8            -1.2553    -4.5936     1.5681 C.3     
   9 C9            -2.5026    -4.8576     2.4140 C.3     
  10 N10           -2.4275    -6.2034     2.9880 N.am    
  11 S11           -1.8240    -6.4198     4.5149 S.o2    
  12 C12           -3.1805    -6.3024     5.6333 C.ar    
  13 C13           -3.8929    -7.4368     5.9757 C.ar    
  14 C14           -4.9568    -7.3474     6.8523 C.ar    
  15 C15           -5.3102    -6.1180     7.3893 C.ar    
  16 C16           -4.5938    -4.9812     7.0442 C.ar    
  17 C17           -3.5272    -5.0768     6.1715 C.ar    
  18 O18           -1.3665    -7.7636     4.5788 O.2     
  19 O19           -0.9886    -5.3009     4.7785 O.2     
  20 C20           -2.8862    -7.3577     2.2113 C.3     
  21 C21           -4.3899    -7.2360     1.9565 C.3     
  22 C22           -4.8413    -8.3595     1.0211 C.3     
  23 C23           -5.1425    -7.3446     3.2842 C.3     
  24 O24           -1.2557    -5.4635     0.4344 O.3     
  25 C25            3.5676     0.1091    -0.4290 C.3     
  26 O26            4.0918     0.3476     0.8788 O.3     
  27 O27            2.4165     1.6586    -2.1362 O.3     
  28 C28            1.4543     0.7497    -1.5977 C.3     
  29 C29            5.4551     0.7756     0.8894 C.3     
  30 C30            1.8742     2.9286    -2.5039 C.3     
  31 O31            5.9982     2.9460    -0.0245 O.3     
  32 C32            5.5145     2.2829     1.1453 C.3     
  33 C33            5.3529     4.1920    -0.2949 C.3     
  34 C34            2.9956     3.8312    -3.0222 C.3     
  35 C35            4.9986     4.2708    -1.7813 C.3     
  36 O36            3.5988     4.5195    -1.9247 O.3     
  37 O37           -6.3567    -6.0273     8.2515 O.3     
  38 C38           -6.6637    -4.7296     8.7651 C.3     
  39 C39           -2.5184    -1.4529    -0.2172 C.ar    
  40 C40           -1.8419    -0.9851    -1.3282 C.ar    
  41 C41           -1.9114     0.3533    -1.6669 C.ar    
  42 C42           -2.6578     1.2238    -0.8948 C.ar    
  43 C43           -3.3350     0.7557     0.2157 C.ar    
  44 C44           -3.2690    -0.5835     0.5519 C.ar    
  45 H45            1.6969     0.5691     0.5352 H       
  46 H46            0.4862    -3.5732    -0.0342 H       
  47 H47           -2.3080    -3.5086    -0.7502 H       
  48 H48           -3.3655    -3.2093     0.6499 H       
  49 H49           -1.3482    -2.4766     1.9558 H       
  50 H50           -0.3640    -4.7784     2.1677 H       
  51 H51           -2.5593    -4.1228     3.2170 H       
  52 H52           -3.3904    -4.7794     1.7865 H       
  53 H53           -3.6176    -8.3936     5.5571 H       
  54 H54           -5.5132    -8.2338     7.1191 H       
  55 H55           -4.8670    -4.0230     7.4609 H       
  56 H56           -2.9691    -4.1922     5.9025 H       
  57 H57           -2.3576    -7.3878     1.2585 H       
  58 H58           -2.6848    -8.2732     2.7676 H       
  59 H59           -4.6035    -6.2716     1.4956 H       
  60 H60           -4.6277    -9.3239     1.4820 H       
  61 H61           -5.9126    -8.2728     0.8396 H       
  62 H62           -4.3051    -8.2822     0.0753 H       
  63 H63           -4.9344    -8.3118     3.7418 H       
  64 H64           -4.8159    -6.5484     3.9531 H       
  65 H65           -6.2134    -7.2510     3.1036 H       
  66 H66           -2.0626    -5.4175    -0.0964 H       
  67 H67            3.9471    -0.8411    -0.8048 H       
  68 H68            3.8767     0.9133    -1.0966 H       
  69 H69            1.2019     0.0009    -2.3485 H       
  70 H70            0.5555     1.2976    -1.3146 H       
  71 H71            5.9943     0.2515     1.6785 H       
  72 H72            5.9135     0.5523    -0.0740 H       
  73 H73            1.1271     2.7920    -3.2857 H       
  74 H74            1.4088     3.3908    -1.6334 H       
  75 H75            4.5167     2.6503     1.3849 H       
  76 H76            6.1858     2.4834     1.9804 H       
  77 H77            4.4426     4.2664     0.3000 H       
  78 H78            6.0234     5.0118    -0.0373 H       
  79 H79            3.7468     3.2238    -3.5272 H       
  80 H80            2.5833     4.5565    -3.7236 H       
  81 H81            5.5610     5.0804    -2.2464 H       
  82 H82            5.2516     3.3276    -2.2656 H       
  83 H83           -5.8023    -4.3406     9.3080 H       
  84 H84           -6.9055    -4.0601     7.9396 H       
  85 H85           -7.5174    -4.7982     9.4393 H       
  86 H86           -1.2587    -1.6651    -1.9314 H       
  87 H87           -1.3823     0.7190    -2.5345 H       
  88 H88           -2.7116     2.2696    -1.1590 H       
  89 H89           -3.9179     1.4359     0.8191 H       
  90 H90           -3.8011    -0.9499     1.4173 H       
@<TRIPOS>BOND
   1    1    3 1
   2    1   25 1
   3    1   28 1
   4    1   45 1
   5    2    3 1
   6    2    4 am
   7    2    5 2
   8    4    7 1
   9    4   46 1
  10    6    7 1
  11    6   39 1
  12    6   47 1
  13    6   48 1
  14    7    8 1
  15    7   49 1
  16    8    9 1
  17    8   24 1
  18    8   50 1
  19    9   10 1
  20    9   51 1
  21    9   52 1
  22   10   11 am
  23   10   20 1
  24   11   12 1
  25   11   18 2
  26   11   19 2
  27   12   13 ar
  28   12   17 ar
  29   13   14 ar
  30   13   53 1
  31   14   15 ar
  32   14   54 1
  33   15   16 ar
  34   15   37 1
  35   16   17 ar
  36   16   55 1
  37   17   56 1
  38   20   21 1
  39   20   57 1
  40   20   58 1
  41   21   22 1
  42   21   23 1
  43   21   59 1
  44   22   60 1
  45   22   61 1
  46   22   62 1
  47   23   63 1
  48   23   64 1
  49   23   65 1
  50   24   66 1
  51   25   26 1
  52   25   67 1
  53   25   68 1
  54   26   29 1
  55   27   28 1
  56   27   30 1
  57   28   69 1
  58   28   70 1
  59   29   32 1
  60   29   71 1
  61   29   72 1
  62   30   34 1
  63   30   73 1
  64   30   74 1
  65   31   32 1
  66   31   33 1
  67   32   75 1
  68   32   76 1
  69   33   35 1
  70   33   77 1
  71   33   78 1
  72   34   36 1
  73   34   79 1
  74   34   80 1
  75   35   36 1
  76   35   81 1
  77   35   82 1
  78   37   38 1
  79   38   83 1
  80   38   84 1
  81   38   85 1
  82   39   40 ar
  83   39   44 ar
  84   40   41 ar
  85   40   86 1
  86   41   42 ar
  87   41   87 1
  88   42   43 ar
  89   42   88 1
  90   43   44 ar
  91   43   89 1
  92   44   90 1

#	End of record

