#	Name: ASD01150862
#	Creating user name:	WinNT
#	Creation time:	15. 06. 2019 19:05

#	Modifying user name:	WinNT
#	Modification time:	15. 06. 2019 19:05

#	Program:	/corina/corina34_cracker 3.40 0067  02.08.2006

@<TRIPOS>MOLECULE
ASD01150862
  55   57    0    0    0
SMALL
NO_CHARGES


@<TRIPOS>ATOM
   1 C1            -0.0283     1.5415     0.0684 C.3     
   2 C2             0.0718     0.0474     0.2373 C.2     
   3 N3            -1.0443    -0.6870     0.4150 N.am    
   4 O4             1.1566    -0.4942     0.2134 O.2     
   5 C5            -0.9627    -2.0742     0.4682 C.2     
   6 N6             0.1517    -2.8014     0.3583 N.2     
   7 C7            -0.1341    -4.0839     0.4547 C.2     
   8 N8            -1.4746    -4.2338     0.6344 N.pl3   
   9 C9            -2.0256    -2.9502     0.6511 C.2     
  10 C10           -0.0515     2.1999     1.4239 C.ar    
  11 C11            1.1792     2.0473    -0.7235 C.3     
  12 C12           -3.3843    -2.6128     0.8124 C.2     
  13 O13           -4.3072    -3.5856     0.9731 O.3     
  14 O14           -3.7263    -1.4440     0.8070 O.2     
  15 C15           -5.6657    -3.1714     1.1312 C.3     
  16 C16           -6.5581    -4.4028     1.2989 C.3     
  17 S17            1.0355    -5.3985     0.3644 S.3     
  18 C18            2.5577    -4.4490     0.1245 C.3     
  19 C19           -2.1678    -5.4422     0.7794 C.ar    
  20 C20           -1.1355     2.9712     1.7991 C.ar    
  21 C21           -1.1568     3.5751     3.0424 C.ar    
  22 C22           -0.0943     3.4073     3.9106 C.ar    
  23 C23            0.9893     2.6351     3.5357 C.ar    
  24 C24            1.0086     2.0277     2.2941 C.ar    
  25 C25            1.1228     1.4933    -2.1486 C.3     
  26 C26           -1.9368    -6.2482     1.8863 C.ar    
  27 C27           -2.6223    -7.4390     2.0267 C.ar    
  28 C28           -3.5378    -7.8289     1.0664 C.ar    
  29 C29           -3.7700    -7.0284    -0.0370 C.ar    
  30 C30           -3.0916    -5.8339    -0.1805 C.ar    
  31 H31           -0.9440     1.7858    -0.4699 H       
  32 H32           -1.9044    -0.2478     0.5058 H       
  33 H33            1.1618     3.1366    -0.7562 H       
  34 H34            2.0969     1.7129    -0.2397 H       
  35 H35           -5.7519    -2.5373     2.0136 H       
  36 H36           -5.9799    -2.6122     0.2499 H       
  37 H37           -6.4719    -5.0369     0.4165 H       
  38 H38           -6.2438    -4.9619     2.1802 H       
  39 H39           -7.5943    -4.0868     1.4194 H       
  40 H40            3.4036    -5.1321     0.0469 H       
  41 H41            2.4794    -3.8622    -0.7908 H       
  42 H42            2.7067    -3.7810     0.9728 H       
  43 H43           -1.9656     3.1024     1.1208 H       
  44 H44           -2.0034     4.1784     3.3352 H       
  45 H45           -0.1107     3.8797     4.8817 H       
  46 H46            1.8195     2.5043     4.2139 H       
  47 H47            1.8552     1.4245     2.0012 H       
  48 H48            2.0255     1.7823    -2.6867 H       
  49 H49            1.0532     0.4061    -2.1132 H       
  50 H50            0.2494     1.8968    -2.6610 H       
  51 H51           -1.2217    -5.9445     2.6365 H       
  52 H52           -2.4429    -8.0665     2.8872 H       
  53 H53           -4.0723    -8.7606     1.1783 H       
  54 H54           -4.4853    -7.3357    -0.7854 H       
  55 H55           -3.2736    -5.2090    -1.0423 H       
@<TRIPOS>BOND
   1    1    2 1
   2    1   10 1
   3    1   11 1
   4    1   31 1
   5    2    3 am
   6    2    4 2
   7    3    5 1
   8    3   32 1
   9    5    6 1
  10    5    9 2
  11    6    7 2
  12    7    8 1
  13    7   17 1
  14    8    9 1
  15    8   19 1
  16    9   12 1
  17   10   20 ar
  18   10   24 ar
  19   11   25 1
  20   11   33 1
  21   11   34 1
  22   12   13 1
  23   12   14 2
  24   13   15 1
  25   15   16 1
  26   15   35 1
  27   15   36 1
  28   16   37 1
  29   16   38 1
  30   16   39 1
  31   17   18 1
  32   18   40 1
  33   18   41 1
  34   18   42 1
  35   19   26 ar
  36   19   30 ar
  37   20   21 ar
  38   20   43 1
  39   21   22 ar
  40   21   44 1
  41   22   23 ar
  42   22   45 1
  43   23   24 ar
  44   23   46 1
  45   24   47 1
  46   25   48 1
  47   25   49 1
  48   25   50 1
  49   26   27 ar
  50   26   51 1
  51   27   28 ar
  52   27   52 1
  53   28   29 ar
  54   28   53 1
  55   29   30 ar
  56   29   54 1
  57   30   55 1

#	End of record

