#	Name: ASD03720003
#	Creating user name:	WinNT
#	Creation time:	15. 06. 2019 20:43

#	Modifying user name:	WinNT
#	Modification time:	15. 06. 2019 20:43

#	Program:	/corina/corina34_cracker 3.40 0067  02.08.2006

@<TRIPOS>MOLECULE
ASD03720003
  81   83    0    0    0
SMALL
NO_CHARGES


@<TRIPOS>ATOM
   1 C1            -0.1257     1.3104    -0.1327 C.3     
   2 C2            -0.5080    -0.1833     0.0689 C.3     
   3 C3             1.3670     1.3267    -0.2779 C.2     
   4 C4            -0.6994     1.9397     1.1389 C.3     
   5 C5            -1.9581    -0.1130     0.5217 C.3     
   6 C6            -0.1922    -0.9133    -1.2156 C.3     
   7 C7             2.1558     2.0290     0.5352 C.2     
   8 C8             1.9169     0.4836    -1.4196 C.3     
   9 C9            -2.0788     1.2358     1.2781 C.3     
  10 C10           -2.8942    -0.1293    -0.6884 C.3     
  11 C11            1.3372    -0.9289    -1.3762 C.3     
  12 C12            3.6081     2.0072     0.3457 C.2     
  13 O13           -2.6117     0.9948    -1.5243 O.3     
  14 C14            4.4064     2.7181     1.1686 C.2     
  15 C15           -2.8743     0.7688    -2.9107 C.3     
  16 C16            3.8540     3.5307     2.2725 C.2     
  17 C17            5.9138     2.7169     1.0097 C.3     
  18 C18           -2.5378     2.0318    -3.7060 C.3     
  19 C19            4.5762     3.4561     3.6029 C.3     
  20 C20            2.7732     4.2928     2.1059 C.2     
  21 C21            6.5444     2.5057     2.3899 C.3     
  22 C22            6.0794     3.6015     3.3450 C.3     
  23 O23            4.3139     2.1956     4.2230 O.3     
  24 O24            7.9679     2.5521     2.2738 O.3     
  25 C25            0.3444    -0.7731     1.1943 C.3     
  26 C26           -4.3461    -0.0578    -0.2112 C.3     
  27 C27           -2.8191     1.7898    -5.1903 C.3     
  28 C28           -2.5477     3.0738    -5.9768 C.3     
  29 C29           -2.8455     2.8368    -7.4587 C.3     
  30 C30           -1.9599     1.7043    -7.9821 C.3     
  31 C31           -3.4455     4.1946    -5.4490 C.3     
  32 C32           -3.2651     5.4431    -6.3148 C.3     
  33 O33           -1.1773     3.4476    -5.8202 O.3     
  34 H34           -0.6038     1.7176    -1.0236 H       
  35 H35           -0.0655     1.7207     1.9981 H       
  36 H36           -0.8254     3.0152     1.0146 H       
  37 H37           -2.1875    -0.9444     1.1882 H       
  38 H38           -0.5691    -1.9347    -1.1630 H       
  39 H39           -0.6474    -0.3930    -2.0583 H       
  40 H40            1.7242     2.6141     1.3338 H       
  41 H41            1.6545     0.9503    -2.3691 H       
  42 H42            3.0022     0.4290    -1.3351 H       
  43 H43           -2.3032     1.0566     2.3296 H       
  44 H44           -2.8592     1.8491     0.8276 H       
  45 H45           -2.7421    -1.0492    -1.2530 H       
  46 H46            1.7771    -1.4678    -0.5370 H       
  47 H47            1.5920    -1.4460    -2.3013 H       
  48 H48            4.0397     1.4221    -0.4529 H       
  49 H49           -2.2608    -0.0589    -3.2665 H       
  50 H50           -3.9279     0.5243    -3.0457 H       
  51 H51            6.2120     1.9084     0.3422 H       
  52 H52            6.2404     3.6722     0.5990 H       
  53 H53           -3.1514     2.8594    -3.3502 H       
  54 H54           -1.4842     2.2762    -3.5710 H       
  55 H55            4.2352     4.2629     4.2516 H       
  56 H56            2.2791     4.3268     1.1462 H       
  57 H57            2.3916     4.8763     2.9307 H       
  58 H58            6.2443     1.5333     2.7805 H       
  59 H59            6.2789     4.5794     2.9069 H       
  60 H60            6.6192     3.5108     4.2876 H       
  61 H61            3.3774     2.0313     4.3992 H       
  62 H62            8.3367     1.8795     1.6851 H       
  63 H63            0.0738    -0.3030     2.1397 H       
  64 H64            0.1683    -1.8469     1.2590 H       
  65 H65            1.3985    -0.5897     0.9860 H       
  66 H66           -5.0129    -0.0694    -1.0733 H       
  67 H67           -4.5615    -0.9152     0.4264 H       
  68 H68           -4.4981     0.8621     0.3534 H       
  69 H69           -2.1706     0.9945    -5.5581 H       
  70 H70           -3.8613     1.4978    -5.3198 H       
  71 H71           -3.8938     2.5637    -7.5794 H       
  72 H72           -2.6403     3.7479    -8.0207 H       
  73 H73           -0.9150     1.9339    -7.7731 H       
  74 H74           -2.2328     0.7717    -7.4882 H       
  75 H75           -2.1009     1.6005    -9.0580 H       
  76 H76           -4.4867     3.8740    -5.4862 H       
  77 H77           -3.1726     4.4241    -4.4190 H       
  78 H78           -3.9048     6.2415    -5.9388 H       
  79 H79           -2.2240     5.7636    -6.2776 H       
  80 H80           -3.5380     5.2135    -7.3448 H       
  81 H81           -0.9173     3.6139    -4.9038 H       
@<TRIPOS>BOND
   1    1    2 1
   2    1    3 1
   3    1    4 1
   4    1   34 1
   5    2    5 1
   6    2    6 1
   7    2   25 1
   8    3    7 2
   9    3    8 1
  10    4    9 1
  11    4   35 1
  12    4   36 1
  13    5   10 1
  14    5    9 1
  15    5   37 1
  16    6   11 1
  17    6   38 1
  18    6   39 1
  19    7   12 1
  20    7   40 1
  21    8   11 1
  22    8   41 1
  23    8   42 1
  24    9   43 1
  25    9   44 1
  26   10   13 1
  27   10   26 1
  28   10   45 1
  29   11   46 1
  30   11   47 1
  31   12   14 2
  32   12   48 1
  33   13   15 1
  34   14   16 1
  35   14   17 1
  36   15   18 1
  37   15   49 1
  38   15   50 1
  39   16   19 1
  40   16   20 2
  41   17   21 1
  42   17   51 1
  43   17   52 1
  44   18   27 1
  45   18   53 1
  46   18   54 1
  47   19   22 1
  48   19   23 1
  49   19   55 1
  50   20   56 1
  51   20   57 1
  52   21   24 1
  53   21   22 1
  54   21   58 1
  55   22   59 1
  56   22   60 1
  57   23   61 1
  58   24   62 1
  59   25   63 1
  60   25   64 1
  61   25   65 1
  62   26   66 1
  63   26   67 1
  64   26   68 1
  65   27   28 1
  66   27   69 1
  67   27   70 1
  68   28   29 1
  69   28   31 1
  70   28   33 1
  71   29   30 1
  72   29   71 1
  73   29   72 1
  74   30   73 1
  75   30   74 1
  76   30   75 1
  77   31   32 1
  78   31   76 1
  79   31   77 1
  80   32   78 1
  81   32   79 1
  82   32   80 1
  83   33   81 1

#	End of record

