#	Name: ASD01940133
#	Creating user name:	WinNT
#	Creation time:	15. 06. 2019 20:11

#	Modifying user name:	WinNT
#	Modification time:	15. 06. 2019 20:11

#	Program:	/corina/corina34_cracker 3.40 0067  02.08.2006

@<TRIPOS>MOLECULE
ASD01940133
  20   19    0    0    0
SMALL
NO_CHARGES


@<TRIPOS>ATOM
   1 K1             0.0000     0.0000     0.0000 Du      
   2 C2             7.2091     7.0420     7.5945 C.3     
   3 C3             7.2298     5.5121     7.5861 C.3     
   4 C4             8.5443     6.2951     7.5778 C.3     
   5 S5             6.6996     7.8811     6.0692 S.o2    
   6 O6             6.7481     9.3187     6.2861 O.co2   
   7 O7             7.6115     7.5052     5.0000 O.co2   
   8 O8             5.3439     7.4704     5.7383 O.co2   
   9 C9             6.8041     7.7358     8.8966 C.3     
  10 C10            6.9629     9.2264     8.7420 C.2     
  11 C11            5.9494    10.0214     8.9805 C.2     
  12 H12            6.9549     5.0000     8.5082 H       
  13 H13            6.9373     5.0099     6.6640 H       
  14 H14            9.1166     6.3080     6.6502 H       
  15 H15            9.1342     6.2981     8.4944 H       
  16 H16            5.7638     7.5030     9.1241 H       
  17 H17            7.4409     7.3849     9.7087 H       
  18 H18            7.9124     9.6393     8.4345 H       
  19 H19            5.0000     9.6086     9.2880 H       
  20 H20            6.0633    11.0897     8.8697 H       
@<TRIPOS>BOND
   1    2    3 1
   2    2    4 1
   3    2    5 1
   4    2    9 1
   5    3    4 1
   6    3   12 1
   7    3   13 1
   8    4   14 1
   9    4   15 1
  10    5    6 ar
  11    5    7 ar
  12    5    8 ar
  13    9   10 1
  14    9   16 1
  15    9   17 1
  16   10   11 2
  17   10   18 1
  18   11   19 1
  19   11   20 1

#	End of record

