#	Name: ASD03490131
#	Creating user name:	WinNT
#	Creation time:	15. 06. 2019 20:42

#	Modifying user name:	WinNT
#	Modification time:	15. 06. 2019 20:42

#	Program:	/corina/corina34_cracker 3.40 0067  02.08.2006

@<TRIPOS>MOLECULE
ASD03490131
  40   40    0    0    0
SMALL
NO_CHARGES


@<TRIPOS>ATOM
   1 P1            -1.4784    -1.0919     0.7789 P.3     
   2 C2            -2.5915    -2.5446    -1.1681 C.3     
   3 N3            -0.9707     1.8739     5.5899 Du      
   4 O4            -0.6335    -2.2138     1.2455 O.2     
   5 C5            -3.9752    -2.9039    -1.7133 C.3     
   6 O6            -0.6107    -0.1268    -0.1739 O.3     
   7 C7            -3.8229    -3.8381    -2.9154 C.3     
   8 O8            -2.7338    -1.6721    -0.0454 O.3     
   9 C9            -1.1386     0.2978     3.0347 C.3     
  10 O10           -2.0098    -0.2562     2.0483 O.3     
  11 C11           -1.3133     1.8187     3.0848 C.3     
  12 C12           -0.5483     2.4013     4.2631 C.3     
  13 C13           -2.3187     2.5205     5.5933 C.3     
  14 C14           -1.2010     1.5930     7.0528 C.3     
  15 C15           -0.6262     0.4321     5.4579 C.3     
  16 C16           -1.4967    -0.2656     4.4152 C.3     
  17 H17           -2.0756    -3.4536    -0.8588 H       
  18 H18           -2.0132    -2.0451    -1.9454 H       
  19 H19           -0.1416     2.5150     5.9665 H       
  20 H20           -4.5535    -3.4034    -0.9361 H       
  21 H21           -4.4911    -1.9950    -2.0226 H       
  22 H22           -1.1020     0.6321    -0.5172 H       
  23 H23           -3.3069    -4.7471    -2.6061 H       
  24 H24           -4.8086    -4.0941    -3.3039 H       
  25 H25           -3.2445    -3.3386    -3.6927 H       
  26 H26           -0.1057     0.0523     2.7942 H       
  27 H27           -0.9004     2.2423     2.1558 H       
  28 H28           -2.3686     2.0714     3.1124 H       
  29 H29           -0.6733     3.4929     4.2632 H       
  30 H30            0.5226     2.2004     4.1274 H       
  31 H31           -3.0749     1.7827     5.8614 H       
  32 H32           -2.3301     3.3329     6.3199 H       
  33 H33           -2.5338     2.9173     4.6011 H       
  34 H34           -0.2998     1.1589     7.4857 H       
  35 H35           -1.4399     2.5233     7.5681 H       
  36 H36           -2.0299     0.8937     7.1624 H       
  37 H37            0.4247     0.3345     5.1694 H       
  38 H38           -0.7621    -0.0624     6.4250 H       
  39 H39           -2.5499    -0.0967     4.6235 H       
  40 H40           -1.2932    -1.3381     4.4310 H       
@<TRIPOS>BOND
   1    1    4 2
   2    1    6 1
   3    1    8 1
   4    1   10 1
   5    2    5 1
   6    2    8 1
   7    2   17 1
   8    2   18 1
   9    3   12 1
  10    3   13 1
  11    3   14 1
  12    3   15 1
  13    3   19 1
  14    5    7 1
  15    5   20 1
  16    5   21 1
  17    6   22 1
  18    7   23 1
  19    7   24 1
  20    7   25 1
  21    9   10 1
  22    9   11 1
  23    9   16 1
  24    9   26 1
  25   11   12 1
  26   11   27 1
  27   11   28 1
  28   12   29 1
  29   12   30 1
  30   13   31 1
  31   13   32 1
  32   13   33 1
  33   14   34 1
  34   14   35 1
  35   14   36 1
  36   15   16 1
  37   15   37 1
  38   15   38 1
  39   16   39 1
  40   16   40 1

#	End of record

