#	Name: ASD02500118
#	Creating user name:	WinNT
#	Creation time:	15. 06. 2019 20:22

#	Modifying user name:	WinNT
#	Modification time:	15. 06. 2019 20:22

#	Program:	/corina/corina34_cracker 3.40 0067  02.08.2006

@<TRIPOS>MOLECULE
ASD02500118
  59   63    0    0    0
SMALL
NO_CHARGES


@<TRIPOS>ATOM
   1 N1            -3.9749     5.7095    -1.6994 N.ar    
   2 C2            -5.1535     6.2584    -1.8666 C.ar    
   3 C3            -6.1779     6.0930    -0.9367 C.ar    
   4 C4            -5.9663     5.3421     0.1843 C.ar    
   5 C5            -4.6995     4.7538     0.3602 C.ar    
   6 C6            -4.4078     3.9693     1.4873 C.ar    
   7 C7            -3.1700     3.4177     1.6212 C.ar    
   8 C8            -2.1880     3.6218     0.6543 C.ar    
   9 C9            -2.4365     4.3767    -0.4506 C.ar    
  10 C10           -3.7022     4.9629    -0.6246 C.ar    
  11 S11           -1.1761     4.6192    -1.6578 S.o2    
  12 O12           -1.1444     6.0135    -1.9302 O.2     
  13 O13           -0.0432     3.8893    -1.2072 O.2     
  14 N14           -1.6834     3.8819    -3.0511 N.am    
  15 C15           -1.8557     2.5025    -3.0847 C.ar    
  16 C16           -3.0086     1.9600    -3.6457 C.ar    
  17 C17           -3.1821     0.5953    -3.6805 C.ar    
  18 C18           -2.1991    -0.2464    -3.1518 C.ar    
  19 C19           -1.0426     0.3014    -2.5892 C.ar    
  20 C20           -0.8724     1.6667    -2.5625 C.ar    
  21 C21           -2.3821    -1.7098    -3.1871 C.2     
  22 O22           -1.4521    -2.4317    -3.4911 O.2     
  23 N23           -3.5802    -2.2467    -2.8823 N.am    
  24 C24           -3.7531    -3.7049    -2.8228 C.3     
  25 C25           -4.3197    -4.0755    -1.4466 C.3     
  26 N26           -5.4765    -3.2131    -1.1673 N.am    
  27 C27           -5.3036    -1.7549    -1.2267 C.3     
  28 C28           -4.7356    -1.3842    -2.5974 C.3     
  29 C29           -6.6745    -3.7500    -0.8625 C.2     
  30 C30           -7.8019    -2.8730    -0.4807 C.ar    
  31 C31           -7.5775    -1.7081     0.2631 C.ar    
  32 C32           -8.6665    -0.9216     0.5943 C.ar    
  33 C33           -9.9302    -1.3074     0.1839 C.ar    
  34 N34          -10.1117    -2.4110    -0.5159 N.ar    
  35 C35           -9.1067    -3.1892    -0.8604 C.ar    
  36 O36           -6.8282    -4.9551    -0.9015 O.2     
  37 H37           -5.3353     6.8549    -2.7484 H       
  38 H38           -7.1383     6.5585    -1.1020 H       
  39 H39           -6.7489     5.2037     0.9155 H       
  40 H40           -5.1606     3.8045     2.2439 H       
  41 H41           -2.9465     2.8143     2.4886 H       
  42 H42           -1.2138     3.1741     0.7838 H       
  43 H43           -1.8604     4.4122    -3.8437 H       
  44 H44           -3.7678     2.6108    -4.0537 H       
  45 H45           -4.0768     0.1750    -4.1155 H       
  46 H46           -0.2816    -0.3463    -2.1796 H       
  47 H47            0.0230     2.0904    -2.1323 H       
  48 H48           -4.4462    -4.0232    -3.6015 H       
  49 H49           -2.7893    -4.1937    -2.9653 H       
  50 H50           -4.6337    -5.1193    -1.4493 H       
  51 H51           -3.5566    -3.9225    -0.6835 H       
  52 H52           -6.2674    -1.2661    -1.0842 H       
  53 H53           -4.6105    -1.4366    -0.4480 H       
  54 H54           -4.4205    -0.3408    -2.5912 H       
  55 H55           -5.5002    -1.5335    -3.3598 H       
  56 H56           -6.5800    -1.4309     0.5708 H       
  57 H57           -8.5316    -0.0162     1.1674 H       
  58 H58          -10.7821    -0.6954     0.4410 H       
  59 H59           -9.2947    -4.0823    -1.4379 H       
@<TRIPOS>BOND
   1    1    2 ar
   2    1   10 ar
   3    2    3 ar
   4    2   37 1
   5    3    4 ar
   6    3   38 1
   7    4    5 ar
   8    4   39 1
   9    5    6 ar
  10    5   10 ar
  11    6    7 ar
  12    6   40 1
  13    7    8 ar
  14    7   41 1
  15    8    9 ar
  16    8   42 1
  17    9   10 ar
  18    9   11 1
  19   11   12 2
  20   11   13 2
  21   11   14 am
  22   14   15 1
  23   14   43 1
  24   15   16 ar
  25   15   20 ar
  26   16   17 ar
  27   16   44 1
  28   17   18 ar
  29   17   45 1
  30   18   19 ar
  31   18   21 1
  32   19   20 ar
  33   19   46 1
  34   20   47 1
  35   21   22 2
  36   21   23 am
  37   23   24 1
  38   23   28 1
  39   24   25 1
  40   24   48 1
  41   24   49 1
  42   25   26 1
  43   25   50 1
  44   25   51 1
  45   26   27 1
  46   26   29 am
  47   27   28 1
  48   27   52 1
  49   27   53 1
  50   28   54 1
  51   28   55 1
  52   29   30 1
  53   29   36 2
  54   30   31 ar
  55   30   35 ar
  56   31   32 ar
  57   31   56 1
  58   32   33 ar
  59   32   57 1
  60   33   34 ar
  61   33   58 1
  62   34   35 ar
  63   35   59 1

#	End of record

