#	Name: ASD01840092
#	Creating user name:	WinNT
#	Creation time:	15. 06. 2019 19:37

#	Modifying user name:	WinNT
#	Modification time:	15. 06. 2019 19:37

#	Program:	/corina/corina34_cracker 3.40 0067  02.08.2006

@<TRIPOS>MOLECULE
ASD01840092
  43   45    0    0    0
SMALL
NO_CHARGES


@<TRIPOS>ATOM
   1 C1             0.0190     1.3640    -0.7557 C.ar    
   2 C2             0.0354    -0.0212    -0.6896 C.ar    
   3 N3             1.1470    -0.6752    -0.4460 N.ar    
   4 C4             2.3121    -0.0515    -0.2501 C.ar    
   5 C5             2.3764     1.3454    -0.3011 C.ar    
   6 C6             1.1882     2.0647    -0.5625 C.ar    
   7 S7             3.9058    -0.7171     0.0869 S.3     
   8 C8             4.6402     0.8723     0.1560 C.2     
   9 C9             3.7208     1.8441    -0.0650 C.2     
  10 C10            6.0141     1.1108     0.4100 C.2     
  11 N11            6.8507     0.0748     0.6180 N.am    
  12 O12            6.4387     2.2518     0.4403 O.2     
  13 N13            4.0359     3.1957    -0.0658 N.pl3   
  14 C14            8.2707     0.3212     0.8806 C.3     
  15 C15            1.2010     3.5702    -0.6289 C.3     
  16 C16           -1.2445    -0.7882    -0.9006 C.3     
  17 C17            8.9809    -0.9934     1.0768 C.ar    
  18 C18            9.5326    -1.6485    -0.0087 C.ar    
  19 C19           10.1840    -2.8538     0.1686 C.ar    
  20 C20           10.2844    -3.4067     1.4369 C.ar    
  21 C21            9.7300    -2.7474     2.5244 C.ar    
  22 C22            9.0845    -1.5397     2.3427 C.ar    
  23 O23           10.9244    -4.5925     1.6138 O.3     
  24 C24           10.9894    -5.1020     2.9473 C.3     
  25 H25           -0.9025     1.8884    -0.9614 H       
  26 H26            6.5125    -0.8341     0.5939 H       
  27 H27            3.4613     3.8274    -0.5260 H       
  28 H28            4.8307     3.5087     0.3939 H       
  29 H29            8.7105     0.8489     0.0342 H       
  30 H30            8.3740     0.9277     1.7803 H       
  31 H31            1.5060     3.8874    -1.6261 H       
  32 H32            0.2024     3.9518    -0.4159 H       
  33 H33            1.9037     3.9604     0.1074 H       
  34 H34           -1.3594    -1.0189    -1.9597 H       
  35 H35           -1.2110    -1.7153    -0.3283 H       
  36 H36           -2.0888    -0.1852    -0.5664 H       
  37 H37            9.4538    -1.2178    -0.9959 H       
  38 H38           10.6145    -3.3653    -0.6796 H       
  39 H39            9.8069    -3.1758     3.5128 H       
  40 H40            8.6527    -1.0260     3.1890 H       
  41 H41           11.5253    -6.0512     2.9478 H       
  42 H42           11.5132    -4.3887     3.5837 H       
  43 H43            9.9794    -5.2548     3.3275 H       
@<TRIPOS>BOND
   1    1    2 ar
   2    1    6 ar
   3    1   25 1
   4    2    3 ar
   5    2   16 1
   6    3    4 ar
   7    4    5 ar
   8    4    7 1
   9    5    6 ar
  10    5    9 1
  11    6   15 1
  12    7    8 1
  13    8    9 2
  14    8   10 1
  15    9   13 1
  16   10   11 am
  17   10   12 2
  18   11   14 1
  19   11   26 1
  20   13   27 1
  21   13   28 1
  22   14   17 1
  23   14   29 1
  24   14   30 1
  25   15   31 1
  26   15   32 1
  27   15   33 1
  28   16   34 1
  29   16   35 1
  30   16   36 1
  31   17   18 ar
  32   17   22 ar
  33   18   19 ar
  34   18   37 1
  35   19   20 ar
  36   19   38 1
  37   20   21 ar
  38   20   23 1
  39   21   22 ar
  40   21   39 1
  41   22   40 1
  42   23   24 1
  43   24   41 1
  44   24   42 1
  45   24   43 1

#	End of record

