#	Name: ASD01880092
#	Creating user name:	WinNT
#	Creation time:	15. 06. 2019 19:40

#	Modifying user name:	WinNT
#	Modification time:	15. 06. 2019 19:40

#	Program:	/corina/corina34_cracker 3.40 0067  02.08.2006

@<TRIPOS>MOLECULE
ASD01880092
  64   68    0    0    0
SMALL
NO_CHARGES


@<TRIPOS>ATOM
   1 C1            -0.0169     1.3934     0.0097 C.ar    
   2 C2             0.0021    -0.0041     0.0020 C.ar    
   3 C3            -1.1808    -0.7078     0.0100 C.ar    
   4 C4            -2.3984    -0.0268     0.0258 C.ar    
   5 C5            -2.4187     1.3682     0.0335 C.ar    
   6 C6            -1.2372     2.0744     0.0309 C.ar    
   7 C7            -3.6718    -0.7862     0.0339 C.ar    
   8 C8            -3.6553    -2.1799     0.0258 C.ar    
   9 C9            -4.8438    -2.8815     0.0339 C.ar    
  10 C10           -6.0497    -2.2043     0.0500 C.ar    
  11 C11           -6.0723    -0.8209     0.0581 C.ar    
  12 C12           -4.8904    -0.1089     0.0555 C.ar    
  13 C13           -7.3902    -0.0904     0.0756 C.3     
  14 O14           -7.7931     0.1329     1.4284 O.3     
  15 C15           -8.9676     0.7839     1.6218 C.ar    
  16 C16           -9.7187     1.2003     0.5291 C.ar    
  17 C17          -10.9132     1.8624     0.7218 C.ar    
  18 C18          -11.3684     2.1141     2.0180 C.ar    
  19 C19          -10.5992     1.6871     3.1144 C.ar    
  20 C20           -9.4216     1.0288     2.9133 C.ar    
  21 C21          -11.9029     2.4116    -0.2774 C.3     
  22 C22          -13.0377     3.0403     0.5429 C.3     
  23 C23          -12.6531     2.8263     1.9867 C.2     
  24 C24          -13.1456     4.5359     0.2392 C.3     
  25 C25          -13.4377     4.7503    -1.2563 C.3     
  26 C26          -14.7916     5.4851    -1.3399 C.3     
  27 C27          -14.9265     6.1901     0.0326 C.3     
  28 C28          -14.3321     5.1479     1.0121 C.3     
  29 O29          -13.2936     3.1813     2.9537 O.2     
  30 C30           -8.6042     0.5746     4.0951 C.3     
  31 C31          -11.0799     1.9535     4.5176 C.3     
  32 C32            1.2507     2.1493     0.0017 C.2     
  33 O33            2.3113     1.5568    -0.0116 O.2     
  34 O34            1.2318     3.4966     0.0091 O.3     
  35 H35            0.9444    -0.5315    -0.0105 H       
  36 H36           -1.1665    -1.7877     0.0037 H       
  37 H37           -3.3619     1.8942     0.0457 H       
  38 H38           -1.2532     3.1543     0.0368 H       
  39 H39           -2.7143    -2.7098     0.0128 H       
  40 H40           -4.8323    -3.9615     0.0272 H       
  41 H41           -6.9773    -2.7574     0.0559 H       
  42 H42           -4.9091     0.9709     0.0618 H       
  43 H43           -7.2818     0.8671    -0.4339 H       
  44 H44           -8.1447    -0.6897    -0.4340 H       
  45 H45           -9.3661     1.0053    -0.4730 H       
  46 H46          -11.4261     3.1692    -0.8993 H       
  47 H47          -12.2926     1.6062    -0.9000 H       
  48 H48          -13.9820     2.5410     0.3258 H       
  49 H49          -12.2195     5.0403     0.5148 H       
  50 H50          -12.6538     5.3596    -1.7062 H       
  51 H51          -13.5026     3.7889    -1.7657 H       
  52 H52          -14.7783     6.2188    -2.1460 H       
  53 H53          -15.6039     4.7729    -1.4845 H       
  54 H54          -14.3466     7.1128     0.0516 H       
  55 H55          -15.9733     6.3857     0.2651 H       
  56 H56          -15.0703     4.3812     1.2474 H       
  57 H57          -13.9836     5.6354     1.9226 H       
  58 H58           -8.9084    -0.4321     4.3818 H       
  59 H59           -7.5478     0.5724     3.8269 H       
  60 H60           -8.7654     1.2549     4.9313 H       
  61 H61          -11.6943     1.1191     4.8557 H       
  62 H62          -10.2219     2.0650     5.1806 H       
  63 H63          -11.6712     2.8691     4.5315 H       
  64 H64            2.0871     3.9477     0.0033 H       
@<TRIPOS>BOND
   1    1    2 ar
   2    1   32 1
   3    1    6 ar
   4    2    3 ar
   5    2   35 1
   6    3    4 ar
   7    3   36 1
   8    4    5 ar
   9    4    7 1
  10    5    6 ar
  11    5   37 1
  12    6   38 1
  13    7    8 ar
  14    7   12 ar
  15    8    9 ar
  16    8   39 1
  17    9   10 ar
  18    9   40 1
  19   10   11 ar
  20   10   41 1
  21   11   12 ar
  22   11   13 1
  23   12   42 1
  24   13   14 1
  25   13   43 1
  26   13   44 1
  27   14   15 1
  28   15   16 ar
  29   15   20 ar
  30   16   17 ar
  31   16   45 1
  32   17   18 ar
  33   17   21 1
  34   18   19 ar
  35   18   23 1
  36   19   20 ar
  37   19   31 1
  38   20   30 1
  39   21   22 1
  40   21   46 1
  41   21   47 1
  42   22   23 1
  43   22   24 1
  44   22   48 1
  45   23   29 2
  46   24   25 1
  47   24   28 1
  48   24   49 1
  49   25   26 1
  50   25   50 1
  51   25   51 1
  52   26   27 1
  53   26   52 1
  54   26   53 1
  55   27   28 1
  56   27   54 1
  57   27   55 1
  58   28   56 1
  59   28   57 1
  60   30   58 1
  61   30   59 1
  62   30   60 1
  63   31   61 1
  64   31   62 1
  65   31   63 1
  66   32   33 2
  67   32   34 1
  68   34   64 1

#	End of record

