#	Name: ASD00842099
#	Creating user name:	WinNT
#	Creation time:	15. 06. 2019 18:43

#	Modifying user name:	WinNT
#	Modification time:	15. 06. 2019 18:43

#	Program:	/corina/corina34_cracker 3.40 0067  02.08.2006

@<TRIPOS>MOLECULE
ASD00842099
  98  103    0    0    0
SMALL
NO_CHARGES


@<TRIPOS>ATOM
   1 F1             6.1007    -1.6593    -1.9673 F       
   2 C2             1.0099     1.5592    -0.3882 C.ar    
   3 C3             1.3158     0.2286    -0.6328 C.ar    
   4 C4             1.2454    -0.6978     0.3978 C.ar    
   5 C5             0.8710    -0.2931     1.6643 C.ar    
   6 C6             0.5661     1.0340     1.9054 C.ar    
   7 C7             0.6360     1.9590     0.8804 C.ar    
   8 C8             1.5766    -2.1444     0.1355 C.3     
   9 C9             1.3065    -2.9820     1.3672 C.2     
  10 C10            0.7733    -2.6691    -1.0563 C.3     
  11 C11           -0.6957    -2.4370    -0.8132 C.2     
  12 N12           -1.6062    -2.9080    -1.6882 N.am    
  13 O13           -1.0587    -1.8263     0.1697 O.2     
  14 C14           -3.0323    -2.5940    -1.5263 C.3     
  15 C15           -3.8280    -3.9031    -1.5218 C.3     
  16 C16           -3.4994    -4.6995    -2.7866 C.3     
  17 C17           -2.0077    -5.0410    -2.8033 C.3     
  18 C18           -1.1907    -3.7402    -2.8256 C.3     
  19 N19           -4.2857    -5.9403    -2.8018 N.3     
  20 C20           -4.0857    -6.6752    -4.0586 C.3     
  21 C21           -4.8569    -7.9960    -4.0023 C.3     
  22 N22           -6.2826    -7.7187    -3.7789 N.3     
  23 C23           -6.4826    -6.9838    -2.5221 C.3     
  24 C24           -5.7115    -5.6630    -2.5783 C.3     
  25 C25           -7.0689    -8.9595    -3.7941 C.3     
  26 O26            0.2348    -3.1335     1.9145 O.2     
  27 N27            2.4769    -3.5268     1.7398 N.am    
  28 C28            3.0591    -2.3127    -0.1062 C.ar    
  29 C29            3.5255    -3.1541     0.8962 C.ar    
  30 C30            3.9138    -1.8125    -1.0624 C.ar    
  31 C31            5.2581    -2.1482    -1.0313 C.ar    
  32 C32            5.7349    -2.9865    -0.0364 C.ar    
  33 C33            4.8776    -3.4882     0.9227 C.ar    
  34 Cl34           7.4184    -3.4082     0.0045 Cl      
  35 C35            2.4012    -6.1748     2.4861 C.ar    
  36 C36            1.1569    -6.5601     2.0081 C.ar    
  37 C37            3.4428    -7.0826     2.5155 C.ar    
  38 C38            3.2483    -8.3754     2.0689 C.ar    
  39 C39            2.0054    -8.7657     1.5898 C.ar    
  40 C40            0.9590    -7.8572     1.5597 C.ar    
  41 O41            1.8145   -10.0376     1.1511 O.3     
  42 O42            0.1330    -5.6671     1.9798 O.3     
  43 C43           -1.1202    -6.1327     1.4749 C.3     
  44 C44            2.9369   -10.9201     1.2116 C.3     
  45 C45           -8.5230    -8.6462    -3.4356 C.3     
  46 C46           -7.0107    -9.5831    -5.1900 C.3     
  47 O47            1.6835    -0.1672    -1.8798 O.3     
  48 C48            2.1678     0.2183    -4.2159 C.3     
  49 C49            1.6255     0.8154    -2.9157 C.3     
  50 S50            2.6555    -4.5247     3.0492 S.o2    
  51 O51            4.0201    -4.4386     3.4362 O.2     
  52 O52            1.5784    -4.2302     3.9280 O.2     
  53 H53            1.0683     2.2830    -1.1877 H       
  54 H54            0.8161    -1.0138     2.4668 H       
  55 H55            0.2729     1.3483     2.8962 H       
  56 H56            0.3974     2.9949     1.0713 H       
  57 H57            1.0795    -2.1433    -1.9606 H       
  58 H58            0.9574    -3.7367    -1.1767 H       
  59 H59           -3.1863    -2.0696    -0.5833 H       
  60 H60           -3.3647    -1.9673    -2.3538 H       
  61 H61           -3.5593    -4.4891    -0.6428 H       
  62 H62           -4.8948    -3.6804    -1.4989 H       
  63 H63           -3.7453    -4.1033    -3.6653 H       
  64 H64           -1.7562    -5.6163    -1.9123 H       
  65 H65           -1.7788    -5.6282    -3.6927 H       
  66 H66           -1.3741    -3.2095    -3.7598 H       
  67 H67           -0.1296    -3.9735    -2.7377 H       
  68 H68           -4.4513    -6.0759    -4.8924 H       
  69 H69           -3.0238    -6.8796    -4.1953 H       
  70 H70           -4.7335    -8.5296    -4.9448 H       
  71 H71           -4.4728    -8.6068    -3.1853 H       
  72 H72           -7.5445    -6.7794    -2.3854 H       
  73 H73           -6.1170    -7.5832    -1.6883 H       
  74 H74           -5.8348    -5.1295    -1.6359 H       
  75 H75           -6.0955    -5.0522    -3.3953 H       
  76 H76           -6.6579    -9.6590    -3.0662 H       
  77 H77            3.5372    -1.1597    -1.8360 H       
  78 H78            5.2561    -4.1411     1.6952 H       
  79 H79            4.4106    -6.7808     2.8879 H       
  80 H80            4.0640    -9.0828     2.0922 H       
  81 H81           -0.0089    -8.1591     1.1876 H       
  82 H82           -1.8487    -5.3226     1.5076 H       
  83 H83           -0.9952    -6.4678     0.4453 H       
  84 H84           -1.4725    -6.9631     2.0870 H       
  85 H85            3.2701   -11.0137     2.2452 H       
  86 H86            2.6490   -11.9006     0.8325 H       
  87 H87            3.7476   -10.5191     0.6034 H       
  88 H88           -8.9340    -7.9467    -4.1635 H       
  89 H89           -9.1064    -9.5669    -3.4469 H       
  90 H90           -8.5644    -8.2019    -2.4412 H       
  91 H91           -7.5942   -10.5038    -5.2012 H       
  92 H92           -7.4218    -8.8836    -5.9179 H       
  93 H93           -5.9748    -9.8063    -5.4453 H       
  94 H94            2.2053     0.9918    -4.9830 H       
  95 H95            3.1707    -0.1732    -4.0453 H       
  96 H96            1.5138    -0.5889    -4.5455 H       
  97 H97            0.5916     1.1277    -3.0628 H       
  98 H98            2.2288     1.6779    -2.6326 H       
@<TRIPOS>BOND
   1    1   31 1
   2    2    3 ar
   3    2    7 ar
   4    2   53 1
   5    3    4 ar
   6    3   47 1
   7    4    5 ar
   8    4    8 1
   9    5    6 ar
  10    5   54 1
  11    6    7 ar
  12    6   55 1
  13    7   56 1
  14    8    9 1
  15    8   10 1
  16    8   28 1
  17    9   26 2
  18    9   27 am
  19   10   11 1
  20   10   57 1
  21   10   58 1
  22   11   12 am
  23   11   13 2
  24   12   14 1
  25   12   18 1
  26   14   15 1
  27   14   59 1
  28   14   60 1
  29   15   16 1
  30   15   61 1
  31   15   62 1
  32   16   17 1
  33   16   19 1
  34   16   63 1
  35   17   18 1
  36   17   64 1
  37   17   65 1
  38   18   66 1
  39   18   67 1
  40   19   20 1
  41   19   24 1
  42   20   21 1
  43   20   68 1
  44   20   69 1
  45   21   22 1
  46   21   70 1
  47   21   71 1
  48   22   23 1
  49   22   25 1
  50   23   24 1
  51   23   72 1
  52   23   73 1
  53   24   74 1
  54   24   75 1
  55   25   45 1
  56   25   46 1
  57   25   76 1
  58   27   50 am
  59   27   29 1
  60   28   29 ar
  61   28   30 ar
  62   29   33 ar
  63   30   31 ar
  64   30   77 1
  65   31   32 ar
  66   32   33 ar
  67   32   34 1
  68   33   78 1
  69   35   36 ar
  70   35   37 ar
  71   35   50 1
  72   36   42 1
  73   36   40 ar
  74   37   38 ar
  75   37   79 1
  76   38   39 ar
  77   38   80 1
  78   39   40 ar
  79   39   41 1
  80   40   81 1
  81   41   44 1
  82   42   43 1
  83   43   82 1
  84   43   83 1
  85   43   84 1
  86   44   85 1
  87   44   86 1
  88   44   87 1
  89   45   88 1
  90   45   89 1
  91   45   90 1
  92   46   91 1
  93   46   92 1
  94   46   93 1
  95   47   49 1
  96   48   49 1
  97   48   94 1
  98   48   95 1
  99   48   96 1
 100   49   97 1
 101   49   98 1
 102   50   51 2
 103   50   52 2

#	End of record

