#	Name: ASD00841101
#	Creating user name:	WinNT
#	Creation time:	15. 06. 2019 18:41

#	Modifying user name:	WinNT
#	Modification time:	15. 06. 2019 18:41

#	Program:	/corina/corina34_cracker 3.40 0067  02.08.2006

@<TRIPOS>MOLECULE
ASD00841101
  89   94    0    0    0
SMALL
NO_CHARGES


@<TRIPOS>ATOM
   1 N1            -0.0159     1.3183     0.0093 N.ar    
   2 C2             0.0021    -0.0041     0.0020 C.ar    
   3 C3             1.2069    -0.6955    -0.0132 C.ar    
   4 C4             2.3925     0.0180    -0.0207 C.ar    
   5 C5             2.3308     1.4049    -0.0127 C.ar    
   6 C6             1.0980     2.0259     0.0025 C.ar    
   7 C7             1.2224    -2.2024    -0.0209 C.3     
   8 C8             0.4764    -2.7346    -1.2259 C.2     
   9 O9             2.5879    -2.6961    -0.0089 O.3     
  10 C10            3.3819    -2.3225    -1.0300 C.2     
  11 N11            4.6605    -2.7459    -1.0791 N.am    
  12 O12            2.9459    -1.6036    -1.9072 O.2     
  13 C13            5.5392    -2.3467    -2.1869 C.3     
  14 C14            6.1437    -3.6063    -2.8153 C.3     
  15 C15            6.8374    -4.4311    -1.7286 C.3     
  16 C16            5.8105    -4.8604    -0.6782 C.3     
  17 C17            5.2039    -3.6105    -0.0227 C.3     
  18 N18            7.4468    -5.6232    -2.3332 N.3     
  19 C19            8.2231    -6.3789    -1.3403 C.3     
  20 C20            8.7741    -7.6512    -1.9883 C.3     
  21 N21            9.6102    -7.2882    -3.1410 N.3     
  22 C22            8.8339    -6.5325    -4.1340 C.3     
  23 C23            8.2829    -5.2601    -3.4859 C.3     
  24 C24           10.2196    -8.4803    -3.7456 C.3     
  25 O25            0.7568    -2.5406    -2.3898 O.2     
  26 N26           -0.5539    -3.4626    -0.7644 N.am    
  27 C27            0.4487    -2.7464     1.1585 C.ar    
  28 C28           -0.6011    -3.4915     0.6265 C.ar    
  29 C29            0.6132    -2.6250     2.5150 C.ar    
  30 C30           -0.2835    -3.2566     3.3842 C.ar    
  31 C31           -1.3412    -4.0072     2.8566 C.ar    
  32 C32           -1.4949    -4.1227     1.4917 C.ar    
  33 F33           -2.2122    -4.6208     3.6873 F       
  34 C34           -1.0164    -5.8557    -2.0426 C.ar    
  35 C35           -1.3479    -6.8950    -1.1930 C.ar    
  36 C36           -0.1973    -6.0851    -3.1326 C.ar    
  37 C37            0.2921    -7.3540    -3.3754 C.ar    
  38 C38           -0.0390    -8.3984    -2.5244 C.ar    
  39 C39           -0.8607    -8.1655    -1.4312 C.ar    
  40 O40            0.4408    -9.6476    -2.7613 O.3     
  41 H41           -1.9879    -6.7132    -0.3423 H       
  42 C42            0.0587   -10.6742    -1.8437 C.3     
  43 C43           10.8727    -8.1002    -5.0760 C.3     
  44 O44           -1.1673    -0.6919     0.0099 O.3     
  45 C45           -3.5777    -0.8652     0.0330 C.3     
  46 C46           -2.3720     0.0766     0.0260 C.3     
  47 C47           -0.1204    -3.1366     4.8018 C.1     
  48 N48            0.0090    -3.0413     5.9263 N.1     
  49 S49           -1.6449    -4.2377    -1.7399 S.o2    
  50 O50           -2.8262    -4.4040    -0.9678 O.2     
  51 O51           -1.6212    -3.5580    -2.9876 O.2     
  52 H52            3.3442    -0.4925    -0.0322 H       
  53 H53            3.2375     1.9916    -0.0178 H       
  54 H54            1.0444     3.1046     0.0084 H       
  55 H55            4.9604    -1.8064    -2.9360 H       
  56 H56            6.3374    -1.7082    -1.8083 H       
  57 H57            5.3526    -4.2000    -3.2732 H       
  58 H58            6.8711    -3.3206    -3.5751 H       
  59 H59            7.6119    -3.8285    -1.2543 H       
  60 H60            5.0225    -5.4423    -1.1563 H       
  61 H61            6.3008    -5.4674     0.0830 H       
  62 H62            5.9762    -3.0775     0.5319 H       
  63 H63            4.4025    -3.9056     0.6546 H       
  64 H64            9.0501    -5.7658    -0.9821 H       
  65 H65            7.5792    -6.6469    -0.5026 H       
  66 H66            9.3743    -8.1988    -1.2618 H       
  67 H67            7.9464    -8.2770    -2.3222 H       
  68 H68            9.4777    -6.2645    -4.9716 H       
  69 H69            8.0069    -7.1456    -4.4922 H       
  70 H70            7.6826    -4.7126    -4.2125 H       
  71 H71            9.1106    -4.6343    -3.1521 H       
  72 H72           10.9757    -8.8833    -3.0717 H       
  73 H73            9.4505    -9.2326    -3.9203 H       
  74 H74            1.4328    -2.0439     2.9111 H       
  75 H75           -2.3125    -4.7030     1.0901 H       
  76 H76            0.0599    -5.2718    -3.7950 H       
  77 H77            0.9316    -7.5328    -4.2271 H       
  78 H78           -1.1202    -8.9770    -0.7675 H       
  79 H79            0.4027   -10.4133    -0.8428 H       
  80 H80           -1.0268   -10.7731    -1.8405 H       
  81 H81            0.5088   -11.6193    -2.1477 H       
  82 H82           10.1166    -7.6972    -5.7499 H       
  83 H83           11.6418    -7.3479    -4.9013 H       
  84 H84           11.3248    -8.9847    -5.5246 H       
  85 H85           -3.5566    -1.4891    -0.8606 H       
  86 H86           -3.5390    -1.4986     0.9192 H       
  87 H87           -4.4966    -0.2790     0.0452 H       
  88 H88           -2.3931     0.7004     0.9196 H       
  89 H89           -2.4108     0.7099    -0.8602 H       
@<TRIPOS>BOND
   1    1    2 ar
   2    1    6 ar
   3    2    3 ar
   4    2   44 1
   5    3    4 ar
   6    3    7 1
   7    4    5 ar
   8    4   52 1
   9    5    6 ar
  10    5   53 1
  11    6   54 1
  12    7    8 1
  13    7    9 1
  14    7   27 1
  15    8   25 2
  16    8   26 am
  17    9   10 1
  18   10   11 am
  19   10   12 2
  20   11   13 1
  21   11   17 1
  22   13   14 1
  23   13   55 1
  24   13   56 1
  25   14   15 1
  26   14   57 1
  27   14   58 1
  28   15   16 1
  29   15   18 1
  30   15   59 1
  31   16   17 1
  32   16   60 1
  33   16   61 1
  34   17   62 1
  35   17   63 1
  36   18   19 1
  37   18   23 1
  38   19   20 1
  39   19   64 1
  40   19   65 1
  41   20   21 1
  42   20   66 1
  43   20   67 1
  44   21   22 1
  45   21   24 1
  46   22   23 1
  47   22   68 1
  48   22   69 1
  49   23   70 1
  50   23   71 1
  51   24   43 1
  52   24   72 1
  53   24   73 1
  54   26   49 am
  55   26   28 1
  56   27   28 ar
  57   27   29 ar
  58   28   32 ar
  59   29   30 ar
  60   29   74 1
  61   30   31 ar
  62   30   47 1
  63   31   32 ar
  64   31   33 1
  65   32   75 1
  66   34   35 ar
  67   34   36 ar
  68   34   49 1
  69   35   41 1
  70   35   39 ar
  71   36   37 ar
  72   36   76 1
  73   37   38 ar
  74   37   77 1
  75   38   39 ar
  76   38   40 1
  77   39   78 1
  78   40   42 1
  79   42   79 1
  80   42   80 1
  81   42   81 1
  82   43   82 1
  83   43   83 1
  84   43   84 1
  85   44   46 1
  86   45   46 1
  87   45   85 1
  88   45   86 1
  89   45   87 1
  90   46   88 1
  91   46   89 1
  92   47   48 3
  93   49   50 2
  94   49   51 2

#	End of record

