#	Name: ASD03331743
#	Creating user name:	WinNT
#	Creation time:	15. 06. 2019 20:39

#	Modifying user name:	WinNT
#	Modification time:	15. 06. 2019 20:39

#	Program:	/corina/corina34_cracker 3.40 0067  02.08.2006

@<TRIPOS>MOLECULE
ASD03331743
  44   47    0    0    0
SMALL
NO_CHARGES


@<TRIPOS>ATOM
   1 C1            -0.1562     1.7352    -0.2807 C.ar    
   2 C2            -0.2566     0.3729    -0.3121 C.ar    
   3 C3             0.8310    -0.4221     0.0218 C.ar    
   4 C4             2.0311     0.1466     0.3909 C.ar    
   5 C5             1.0511     2.3336     0.0901 C.ar    
   6 C6             1.4940     3.7203     0.2261 C.2     
   7 C7             2.1572     1.5309     0.4297 C.ar    
   8 N8             3.1973     2.3760     0.7491 N.pl3   
   9 C9             2.7900     3.6841     0.6236 C.2     
  10 C10            0.6678     4.9548    -0.0279 C.3     
  11 C11            3.6359     4.8692     0.8828 C.ar    
  12 C12            1.0241     5.5293    -1.3748 C.ar    
  13 C13           -0.8174     4.5877    -0.0067 C.3     
  14 C14            3.6840     5.9114    -0.0444 C.ar    
  15 C15            4.3842     4.9517     2.0576 C.ar    
  16 C16            5.1719     6.0592     2.2950 C.ar    
  17 C17            5.2212     7.0887     1.3695 C.ar    
  18 C18            4.4751     7.0149     0.2025 C.ar    
  19 C19            1.6640     7.3975    -2.7287 C.ar    
  20 C20            1.6782     6.5831    -3.8456 C.ar    
  21 C21            1.3591     5.2432    -3.7282 C.ar    
  22 C22            1.0323     4.7163    -2.4927 C.ar    
  23 C23            1.3371     6.8705    -1.4932 C.ar    
  24 N24           -1.1496     3.9710     1.2800 N.pl3   
  25 O25           -0.7773     4.4886     2.3177 O.2     
  26 O26           -1.7982     2.9405     1.3119 O.2     
  27 F27            5.9939     8.1712     1.6072 F       
  28 Cl28           4.5369     8.3122    -0.9494 Cl      
  29 H29           -1.0055     2.3474    -0.5459 H       
  30 H30           -1.1898    -0.0890    -0.5988 H       
  31 H31            0.7359    -1.4975    -0.0075 H       
  32 H32            2.8709    -0.4812     0.6495 H       
  33 H33            4.0836     2.0914     1.0218 H       
  34 H34            0.8706     5.6936     0.7474 H       
  35 H35           -1.4162     5.4882    -0.1433 H       
  36 H36           -1.0295     3.8847    -0.8122 H       
  37 H37            3.1035     5.8542    -0.9533 H       
  38 H38            4.3465     4.1500     2.7802 H       
  39 H39            5.7510     6.1237     3.2043 H       
  40 H40            1.9133     8.4443    -2.8204 H       
  41 H41            1.9335     6.9949    -4.8108 H       
  42 H42            1.3702     4.6070    -4.6008 H       
  43 H43            0.7838     3.6693    -2.4009 H       
  44 H44            1.3260     7.5067    -0.6206 H       
@<TRIPOS>BOND
   1    1    2 ar
   2    1    5 ar
   3    1   29 1
   4    2    3 ar
   5    2   30 1
   6    3    4 ar
   7    3   31 1
   8    4    7 ar
   9    4   32 1
  10    5    7 ar
  11    5    6 1
  12    6    9 2
  13    6   10 1
  14    7    8 1
  15    8    9 1
  16    8   33 1
  17    9   11 1
  18   10   12 1
  19   10   13 1
  20   10   34 1
  21   11   15 ar
  22   11   14 ar
  23   12   23 ar
  24   12   22 ar
  25   13   24 1
  26   13   35 1
  27   13   36 1
  28   14   18 ar
  29   14   37 1
  30   15   16 ar
  31   15   38 1
  32   16   17 ar
  33   16   39 1
  34   17   18 ar
  35   17   27 1
  36   18   28 1
  37   19   20 ar
  38   19   23 ar
  39   19   40 1
  40   20   21 ar
  41   20   41 1
  42   21   22 ar
  43   21   42 1
  44   22   43 1
  45   23   44 1
  46   24   25 2
  47   24   26 2

#	End of record

