#	Name: ASD01914256
#	Creating user name:	WinNT
#	Creation time:	15. 06. 2019 20:03

#	Modifying user name:	WinNT
#	Modification time:	15. 06. 2019 20:03

#	Program:	/corina/corina34_cracker 3.40 0067  02.08.2006

@<TRIPOS>MOLECULE
ASD01914256
  37   39    0    0    0
SMALL
NO_CHARGES


@<TRIPOS>ATOM
   1 N1            -0.0154     1.2833     0.0091 N.2     
   2 N2             0.0021    -0.0041     0.0020 N.pl3   
   3 N3             1.1958    -0.4863    -0.0120 N.2     
   4 C4             2.0615     0.5146    -0.0149 C.ar    
   5 C5             1.2309     1.7280    -0.0004 C.ar    
   6 C6             1.8655     2.9826    -0.0001 C.ar    
   7 C7             3.2225     3.0458    -0.0131 C.ar    
   8 C8             4.0106     1.8944    -0.0273 C.ar    
   9 C9             3.4606     0.6522    -0.0282 C.ar    
  10 C10            5.5112     2.0324    -0.0423 C.3     
  11 C11           -1.2068    -0.8316     0.0099 C.3     
  12 C12           -1.6420    -1.1124    -1.4298 C.3     
  13 C13           -2.8567    -1.9438    -1.4219 C.1     
  14 C14           -3.8254    -2.6070    -1.4156 C.1     
  15 C15           -5.0071    -3.4158    -1.4079 C.ar    
  16 C16           -5.5905    -3.8008    -2.6156 C.ar    
  17 C17           -6.7318    -4.5823    -2.5914 C.ar    
  18 C18           -7.2545    -4.9545    -1.3604 C.ar    
  19 C19           -6.6255    -4.5377    -0.2018 C.ar    
  20 N20           -5.5363    -3.7983    -0.2515 N.ar    
  21 C21           -7.1905    -4.9396     1.1362 C.3     
  22 F22           -6.6207    -6.1526     1.5377 F       
  23 H23            1.2787     3.8892     0.0100 H       
  24 H24            3.7040     4.0126    -0.0128 H       
  25 H25            4.0933    -0.2230    -0.0385 H       
  26 H26            5.8837     2.0604     0.9817 H       
  27 H27            5.9491     1.1821    -0.5651 H       
  28 H28            5.7861     2.9546    -0.5543 H       
  29 H29           -0.9989    -1.7738     0.5170 H       
  30 H30           -2.0042    -0.3049     0.5343 H       
  31 H31           -1.8499    -0.1702    -1.9369 H       
  32 H32           -0.8446    -1.6390    -1.9542 H       
  33 H33           -5.1573    -3.4928    -3.5558 H       
  34 H34           -7.2059    -4.8955    -3.5099 H       
  35 H35           -8.1446    -5.5639    -1.3082 H       
  36 H36           -6.9623    -4.1694     1.8731 H       
  37 H37           -8.2712    -5.0552     1.0543 H       
@<TRIPOS>BOND
   1    1    2 1
   2    1    5 2
   3    2    3 1
   4    2   11 1
   5    3    4 2
   6    4    5 ar
   7    4    9 ar
   8    5    6 ar
   9    6    7 ar
  10    6   23 1
  11    7    8 ar
  12    7   24 1
  13    8    9 ar
  14    8   10 1
  15    9   25 1
  16   10   26 1
  17   10   27 1
  18   10   28 1
  19   11   12 1
  20   11   29 1
  21   11   30 1
  22   12   13 1
  23   12   31 1
  24   12   32 1
  25   13   14 3
  26   14   15 1
  27   15   16 ar
  28   15   20 ar
  29   16   17 ar
  30   16   33 1
  31   17   18 ar
  32   17   34 1
  33   18   19 ar
  34   18   35 1
  35   19   20 ar
  36   19   21 1
  37   21   22 1
  38   21   36 1
  39   21   37 1

#	End of record

