#	Name: ASD01411215
#	Creating user name:	WinNT
#	Creation time:	15. 06. 2019 19:19

#	Modifying user name:	WinNT
#	Modification time:	15. 06. 2019 19:19

#	Program:	/corina/corina34_cracker 3.40 0067  02.08.2006

@<TRIPOS>MOLECULE
ASD01411215
  68   71    0    0    0
SMALL
NO_CHARGES


@<TRIPOS>ATOM
   1 C1            -0.7007     1.1430    -1.7024 C.ar    
   2 C2            -0.4130    -0.1883    -1.5335 C.ar    
   3 C3             0.8518    -0.6936    -1.8276 C.ar    
   4 C4             1.8355     0.1686    -2.2925 C.ar    
   5 C5             1.5524     1.5097    -2.4621 C.ar    
   6 C6             0.2878     2.0037    -2.1708 C.ar    
   7 P7            -1.6594    -1.3588    -0.9147 P.3     
   8 N8            -0.8587    -2.7423    -0.5163 N.2     
   9 C9             0.3667    -2.9135    -0.9080 C.2     
  10 N10            1.1083    -2.0527    -1.6578 N.pl3   
  11 C11            1.0232    -4.1692    -0.4984 C.2     
  12 C12            0.4492    -5.1509     0.2502 C.2     
  13 C13            1.4921    -6.2325     0.4149 C.3     
  14 N14            2.6811    -5.7604    -0.3048 N.am    
  15 C15            2.3936    -4.5597    -0.8382 C.2     
  16 O16           -2.3285    -0.7995     0.2811 O.2     
  17 O17           -2.7460    -1.6634    -2.0630 O.3     
  18 O18           -0.8003    -5.1569     0.7462 O.3     
  19 O19            3.1625    -3.8919    -1.5039 O.2     
  20 C20           -3.5594    -0.6478    -2.6539 C.3     
  21 C21           -4.4773    -1.2765    -3.7042 C.3     
  22 C22            1.8170    -6.4301     1.8969 C.3     
  23 C23            0.5227    -6.6783     2.6741 C.3     
  24 C24            2.7479    -7.6334     2.0589 C.3     
  25 C25            2.5053    -5.1761     2.4397 C.3     
  26 N26            0.0078     3.3632    -2.3482 N.am    
  27 S27           -0.0781     4.3690    -1.0354 S.o2    
  28 O28           -0.2804     5.6594    -1.5952 O.2     
  29 O29           -1.0593     3.7711    -0.1994 O.2     
  30 C30            1.5632     4.2569    -0.2711 C.3     
  31 C31            3.9546    -6.4744    -0.4262 C.3     
  32 C32            3.9009    -7.3988    -1.6152 C.ar    
  33 C33            4.3002    -6.9475    -2.8596 C.ar    
  34 C34            4.2512    -7.7936    -3.9511 C.ar    
  35 C35            3.8025    -9.0944    -3.7986 C.ar    
  36 C36            3.4029    -9.5463    -2.5513 C.ar    
  37 C37            3.4579    -8.6988    -1.4595 C.ar    
  38 Cl38           2.8393   -11.1768    -2.3577 Cl      
  39 F39            3.7538    -9.9223    -4.8651 F       
  40 H40           -1.6879     1.5191    -1.4777 H       
  41 H41            2.8213    -0.2089    -2.5209 H       
  42 H42            2.3195     2.1784    -2.8238 H       
  43 H43            1.8828    -2.4174    -2.1140 H       
  44 H44            1.1362    -7.1665    -0.0199 H       
  45 H45           -1.3526    -4.3868     0.5540 H       
  46 H46           -4.1635    -0.1712    -1.8819 H       
  47 H47           -2.9217     0.0981    -3.1284 H       
  48 H48           -5.1149    -2.0224    -3.2297 H       
  49 H49           -5.0977    -0.5019    -4.1549 H       
  50 H50           -3.8732    -1.7531    -4.4762 H       
  51 H51            0.0323    -7.5716     2.2874 H       
  52 H52            0.7541    -6.8191     3.7299 H       
  53 H53           -0.1405    -5.8210     2.5587 H       
  54 H54            3.7796    -7.3182     1.9033 H       
  55 H55            2.6407    -8.0431     3.0632 H       
  56 H56            2.4865    -8.3963     1.3255 H       
  57 H57            1.8421    -4.3188     2.3243 H       
  58 H58            2.7368    -5.3169     3.4955 H       
  59 H59            3.4274    -4.9993     1.8860 H       
  60 H60           -0.1360     3.7165    -3.2400 H       
  61 H61            2.3261     4.4966    -1.0119 H       
  62 H62            1.6271     4.9622     0.5575 H       
  63 H63            1.7227     3.2446     0.1003 H       
  64 H64            4.7627    -5.7555    -0.5611 H       
  65 H65            4.1328    -7.0558     0.4784 H       
  66 H66            4.6503    -5.9328    -2.9787 H       
  67 H67            4.5626    -7.4401    -4.9229 H       
  68 H68            3.1508    -9.0516    -0.4861 H       
@<TRIPOS>BOND
   1    1    2 ar
   2    1    6 ar
   3    1   40 1
   4    2    3 ar
   5    2    7 1
   6    3    4 ar
   7    3   10 1
   8    4    5 ar
   9    4   41 1
  10    5    6 ar
  11    5   42 1
  12    6   26 1
  13    7    8 1
  14    7   16 2
  15    7   17 1
  16    8    9 2
  17    9   10 1
  18    9   11 1
  19   10   43 1
  20   11   12 2
  21   11   15 1
  22   12   13 1
  23   12   18 1
  24   13   14 1
  25   13   22 1
  26   13   44 1
  27   14   15 am
  28   14   31 1
  29   15   19 2
  30   17   20 1
  31   18   45 1
  32   20   21 1
  33   20   46 1
  34   20   47 1
  35   21   48 1
  36   21   49 1
  37   21   50 1
  38   22   23 1
  39   22   24 1
  40   22   25 1
  41   23   51 1
  42   23   52 1
  43   23   53 1
  44   24   54 1
  45   24   55 1
  46   24   56 1
  47   25   57 1
  48   25   58 1
  49   25   59 1
  50   26   27 am
  51   26   60 1
  52   27   28 2
  53   27   29 2
  54   27   30 1
  55   30   61 1
  56   30   62 1
  57   30   63 1
  58   31   32 1
  59   31   64 1
  60   31   65 1
  61   32   33 ar
  62   32   37 ar
  63   33   34 ar
  64   33   66 1
  65   34   35 ar
  66   34   67 1
  67   35   36 ar
  68   35   39 1
  69   36   37 ar
  70   36   38 1
  71   37   68 1

#	End of record

