#	Name: ASD02198617
#	Creating user name:	WinNT
#	Creation time:	15. 06. 2019 20:19

#	Modifying user name:	WinNT
#	Modification time:	15. 06. 2019 20:19

#	Program:	/corina/corina34_cracker 3.40 0067  02.08.2006

@<TRIPOS>MOLECULE
ASD02198617
  38   41    0    0    0
SMALL
NO_CHARGES


@<TRIPOS>ATOM
   1 C1             0.0303     1.0455    -0.0924 C.2     
   2 C2             0.2822    -0.2839    -0.1921 C.2     
   3 N3             1.5517    -0.7493    -0.2122 N.pl3   
   4 N4             2.5815     0.0107    -0.1406 N.2     
   5 C5             2.4794     1.3185    -0.0412 C.2     
   6 C6             1.1377     1.9237    -0.0112 C.2     
   7 C7             1.7512    -2.1299    -0.3161 C.ar    
   8 C8             0.6692    -2.9973    -0.2380 C.ar    
   9 C9             0.8697    -4.3600    -0.3409 C.ar    
  10 C10            2.1458    -4.8609    -0.5213 C.ar    
  11 C11            3.2255    -3.9999    -0.5994 C.ar    
  12 C12            3.0315    -2.6362    -0.5031 C.ar    
  13 C13            3.6879     2.1634     0.0397 C.2     
  14 N14            4.8301     1.8823     0.7350 N.pl3   
  15 N15            5.7203     2.9459     0.5411 N.2     
  16 C16            5.1516     3.8350    -0.2348 C.2     
  17 C17            3.8783     3.3816    -0.5769 C.2     
  18 C18            5.0671     0.7391     1.5025 C.2     
  19 S19            3.9036    -0.0166     2.5835 S.3     
  20 O20            0.9864     3.1328     0.0797 O.2     
  21 C21            6.2151     0.0456     1.5239 C.2     
  22 C22            6.2122    -1.0542     2.3633 C.2     
  23 C23            5.0697    -1.2584     3.0208 C.2     
  24 C24           -0.3035    -5.3020    -0.2558 C.3     
  25 F25           -0.8222    -5.5177    -1.5371 F       
  26 F26            0.1153    -6.5206     0.2889 F       
  27 F27           -1.2929    -4.7421     0.5596 F       
  28 H28           -0.9819     1.4219    -0.0799 H       
  29 H29           -0.5416    -0.9793    -0.2557 H       
  30 H30           -0.3278    -2.6068    -0.0967 H       
  31 H31            2.2999    -5.9269    -0.6011 H       
  32 H32            4.2210    -4.3945    -0.7401 H       
  33 H33            3.8749    -1.9645    -0.5646 H       
  34 H34            5.5968     4.7640    -0.5589 H       
  35 H35            3.1667     3.8954    -1.2061 H       
  36 H36            7.0744     0.3238     0.9319 H       
  37 H37            7.0703    -1.7001     2.4765 H       
  38 H38            4.8877    -2.0651     3.7154 H       
@<TRIPOS>BOND
   1    1    2 2
   2    1    6 1
   3    1   28 1
   4    2    3 1
   5    2   29 1
   6    3    4 1
   7    3    7 1
   8    4    5 2
   9    5    6 1
  10    5   13 1
  11    6   20 2
  12    7    8 ar
  13    7   12 ar
  14    8    9 ar
  15    8   30 1
  16    9   10 ar
  17    9   24 1
  18   10   11 ar
  19   10   31 1
  20   11   12 ar
  21   11   32 1
  22   12   33 1
  23   13   14 1
  24   13   17 2
  25   14   15 1
  26   14   18 1
  27   15   16 2
  28   16   17 1
  29   16   34 1
  30   17   35 1
  31   18   21 2
  32   18   19 1
  33   19   23 1
  34   21   22 1
  35   21   36 1
  36   22   23 2
  37   22   37 1
  38   23   38 1
  39   24   25 1
  40   24   26 1
  41   24   27 1

#	End of record

