#	Name: ASD02500095
#	Creating user name:	WinNT
#	Creation time:	15. 06. 2019 20:22

#	Modifying user name:	WinNT
#	Modification time:	15. 06. 2019 20:22

#	Program:	/corina/corina34_cracker 3.40 0067  02.08.2006

@<TRIPOS>MOLECULE
ASD02500095
  65   69    0    0    0
SMALL
NO_CHARGES


@<TRIPOS>ATOM
   1 N1            -3.5921     5.5523     0.1214 N.ar    
   2 C2            -4.7208     6.1859    -0.0854 C.ar    
   3 C3            -5.8444     5.9599     0.7069 C.ar    
   4 C4            -5.7864     5.0574     1.7304 C.ar    
   5 C5            -4.5728     4.3785     1.9492 C.ar    
   6 C6            -4.4374     3.4373     2.9821 C.ar    
   7 C7            -3.2465     2.8019     3.1616 C.ar    
   8 C8            -2.1594     3.0736     2.3339 C.ar    
   9 C9            -2.2555     3.9801     1.3231 C.ar    
  10 C10           -3.4683     4.6566     1.1060 C.ar    
  11 S11           -0.8646     4.3050     0.2914 S.o2    
  12 O12           -0.7162     5.7177     0.2512 O.2     
  13 O13            0.1671     3.4271     0.7205 O.2     
  14 N14           -1.2716     3.8337    -1.2430 N.am    
  15 C15           -1.4675     2.4868    -1.5276 C.ar    
  16 C16           -1.1227     1.9840    -2.7794 C.ar    
  17 C17           -1.3153     0.6517    -3.0641 C.ar    
  18 C18           -1.8578    -0.1974    -2.0949 C.ar    
  19 C19           -2.2028     0.3104    -0.8392 C.ar    
  20 C20           -2.0025     1.6428    -0.5586 C.ar    
  21 C21           -0.5385     2.9001    -3.8238 C.3     
  22 C22           -2.0660    -1.6262    -2.3970 C.2     
  23 O23           -2.4835    -1.9623    -3.4885 O.2     
  24 N24           -1.7935    -2.5592    -1.4633 N.am    
  25 C25           -1.9060    -3.9926    -1.7730 C.3     
  26 C26           -0.6041    -4.6845    -1.3553 C.3     
  27 N27           -0.3176    -4.3735     0.0516 N.3     
  28 C28           -0.0947    -2.9344     0.2445 C.3     
  29 C29           -1.3699    -2.1709    -0.1094 C.3     
  30 C30            0.7730    -5.1169     0.5175 C.ar    
  31 C31            0.6791    -6.5032     0.6243 C.ar    
  32 C32            1.7613    -7.2335     1.0854 C.ar    
  33 C33            2.9320    -6.5873     1.4393 C.ar    
  34 C34            3.0259    -5.2124     1.3340 C.ar    
  35 C35            1.9519    -4.4764     0.8686 C.ar    
  36 O36           -0.4730    -7.1372     0.2769 O.3     
  37 C37           -0.4970    -8.5596     0.4124 C.3     
  38 H38           -4.7813     6.9025    -0.8912 H       
  39 H39           -6.7603     6.4981     0.5122 H       
  40 H40           -6.6476     4.8701     2.3546 H       
  41 H41           -5.2729     3.2188     3.6307 H       
  42 H42           -3.1433     2.0780     3.9564 H       
  43 H43           -1.2251     2.5569     2.4971 H       
  44 H44           -1.3734     4.4972    -1.9432 H       
  45 H45           -1.0480     0.2624    -4.0354 H       
  46 H46           -2.6221    -0.3430    -0.0884 H       
  47 H47           -2.2645     2.0348     0.4131 H       
  48 H48            0.5475     2.9110    -3.7309 H       
  49 H49           -0.8148     2.5430    -4.8159 H       
  50 H50           -0.9257     3.9088    -3.6798 H       
  51 H51           -2.7422    -4.4219    -1.2210 H       
  52 H52           -2.0638    -4.1246    -2.8434 H       
  53 H53           -0.7105    -5.7626    -1.4751 H       
  54 H54            0.2143    -4.3276    -1.9806 H       
  55 H55            0.1683    -2.7434     1.2849 H       
  56 H56            0.7166    -2.6019    -0.4031 H       
  57 H57           -1.1733    -1.0991    -0.0805 H       
  58 H58           -2.1535    -2.4217     0.6055 H       
  59 H59            1.6912    -8.3080     1.1692 H       
  60 H60            3.7749    -7.1587     1.7991 H       
  61 H61            3.9417    -4.7121     1.6121 H       
  62 H62            2.0294    -3.4026     0.7831 H       
  63 H63            0.2791    -8.9975    -0.2153 H       
  64 H64           -0.3171    -8.8285     1.4533 H       
  65 H65           -1.4712    -8.9377     0.1026 H       
@<TRIPOS>BOND
   1    1    2 ar
   2    1   10 ar
   3    2    3 ar
   4    2   38 1
   5    3    4 ar
   6    3   39 1
   7    4    5 ar
   8    4   40 1
   9    5    6 ar
  10    5   10 ar
  11    6    7 ar
  12    6   41 1
  13    7    8 ar
  14    7   42 1
  15    8    9 ar
  16    8   43 1
  17    9   10 ar
  18    9   11 1
  19   11   12 2
  20   11   13 2
  21   11   14 am
  22   14   15 1
  23   14   44 1
  24   15   16 ar
  25   15   20 ar
  26   16   17 ar
  27   16   21 1
  28   17   18 ar
  29   17   45 1
  30   18   19 ar
  31   18   22 1
  32   19   20 ar
  33   19   46 1
  34   20   47 1
  35   21   48 1
  36   21   49 1
  37   21   50 1
  38   22   23 2
  39   22   24 am
  40   24   25 1
  41   24   29 1
  42   25   26 1
  43   25   51 1
  44   25   52 1
  45   26   27 1
  46   26   53 1
  47   26   54 1
  48   27   28 1
  49   27   30 1
  50   28   29 1
  51   28   55 1
  52   28   56 1
  53   29   57 1
  54   29   58 1
  55   30   31 ar
  56   30   35 ar
  57   31   32 ar
  58   31   36 1
  59   32   33 ar
  60   32   59 1
  61   33   34 ar
  62   33   60 1
  63   34   35 ar
  64   34   61 1
  65   35   62 1
  66   36   37 1
  67   37   63 1
  68   37   64 1
  69   37   65 1

#	End of record

