#	Name: ASD01850081
#	Creating user name:	WinNT
#	Creation time:	15. 06. 2019 19:38

#	Modifying user name:	WinNT
#	Modification time:	15. 06. 2019 19:38

#	Program:	/corina/corina34_cracker 3.40 0067  02.08.2006

@<TRIPOS>MOLECULE
ASD01850081
  59   62    0    0    0
SMALL
NO_CHARGES


@<TRIPOS>ATOM
   1 C1             9.0997     2.7903     1.6108 C.ar    
   2 C2             9.0459     3.9522     0.8642 C.ar    
   3 C3             7.8226     4.5010     0.5268 C.ar    
   4 C4             6.6535     3.8875     0.9356 C.ar    
   5 C5             6.7074     2.7247     1.6817 C.ar    
   6 C6             7.9303     2.1768     2.0202 C.ar    
   7 C7             3.7017     2.1862     0.2775 C.3     
   8 N8             4.2869     2.7256     1.5075 N.am    
   9 C9             3.7711     3.8375     2.0680 C.2     
  10 C10            4.4398     4.4558     3.2687 C.3     
  11 O11            2.7688     4.3404     1.6061 O.2     
  12 C12            3.8877     5.8659     3.4899 C.3     
  13 C13            4.1623     3.5976     4.5051 C.3     
  14 C14            4.8721     4.2102     5.7166 C.3     
  15 N15            4.4552     5.6128     5.8496 N.am    
  16 C16            4.5944     6.5041     4.6899 C.3     
  17 C17            5.1975     6.7694     8.2341 C.ar    
  18 C18            5.5883     8.0719     8.1190 C.ar    
  19 C19            6.6665     8.5405     8.8781 C.ar    
  20 C20            7.3364     7.6632     9.7525 C.ar    
  21 C21            6.9147     6.3393     9.8490 C.ar    
  22 C22            5.8566     5.9066     9.1014 C.ar    
  23 C23            7.3337     9.8324     9.0027 C.2     
  24 N24            8.2964     9.7009     9.8700 N.2     
  25 N25            8.3321     8.3886    10.3527 N.pl3   
  26 C26            5.4327     2.0563     2.1283 C.3     
  27 C27            4.3018     2.9068    -0.9314 C.3     
  28 F28            3.7144     2.4193    -2.1038 F       
  29 S29            3.8398     6.1781     7.2793 S.o2    
  30 O30            3.0517     7.3153     6.9551 O.2     
  31 O31            3.3258     5.0476     7.9699 O.2     
  32 C32            7.9890     0.9097     2.8338 C.3     
  33 F33            9.3228     0.5178     2.9910 F       
  34 F34            7.4181     1.1357     4.0908 F       
  35 F35            7.2807    -0.1008     2.1748 F       
  36 H36           10.0553     2.3592     1.8705 H       
  37 H37            9.9594     4.4316     0.5447 H       
  38 H38            7.7805     5.4093    -0.0560 H       
  39 H39            5.6979     4.3165     0.6727 H       
  40 H40            3.9180     1.1201     0.2093 H       
  41 H41            2.6224     2.3378     0.2918 H       
  42 H42            5.5150     4.5094     3.0980 H       
  43 H43            4.0649     6.4697     2.5999 H       
  44 H44            2.8168     5.8108     3.6854 H       
  45 H45            3.0888     3.5639     4.6910 H       
  46 H46            4.5350     2.5871     4.3377 H       
  47 H47            4.5980     3.6606     6.6171 H       
  48 H48            5.9512     4.1619     5.5708 H       
  49 H49            5.6509     6.6429     4.4604 H       
  50 H50            4.1370     7.4681     4.9130 H       
  51 H51            5.0686     8.7372     7.4455 H       
  52 H52            7.4210     5.6572    10.5159 H       
  53 H53            5.5328     4.8792     9.1798 H       
  54 H54            7.0753    10.7360     8.4707 H       
  55 H55            8.9608     8.0469    11.0077 H       
  56 H56            5.4476     1.0084     1.8285 H       
  57 H57            5.3484     2.1227     3.2130 H       
  58 H58            4.1121     3.9769    -0.8477 H       
  59 H59            5.3769     2.7298    -0.9630 H       
@<TRIPOS>BOND
   1    1    2 ar
   2    1    6 ar
   3    1   36 1
   4    2    3 ar
   5    2   37 1
   6    3    4 ar
   7    3   38 1
   8    4    5 ar
   9    4   39 1
  10    5    6 ar
  11    5   26 1
  12    6   32 1
  13    7    8 1
  14    7   27 1
  15    7   40 1
  16    7   41 1
  17    8    9 am
  18    8   26 1
  19    9   10 1
  20    9   11 2
  21   10   12 1
  22   10   13 1
  23   10   42 1
  24   12   16 1
  25   12   43 1
  26   12   44 1
  27   13   14 1
  28   13   45 1
  29   13   46 1
  30   14   15 1
  31   14   47 1
  32   14   48 1
  33   15   29 am
  34   15   16 1
  35   16   49 1
  36   16   50 1
  37   17   29 1
  38   17   18 ar
  39   17   22 ar
  40   18   19 ar
  41   18   51 1
  42   19   20 ar
  43   19   23 1
  44   20   21 ar
  45   20   25 1
  46   21   22 ar
  47   21   52 1
  48   22   53 1
  49   23   24 2
  50   23   54 1
  51   24   25 1
  52   25   55 1
  53   26   56 1
  54   26   57 1
  55   27   28 1
  56   27   58 1
  57   27   59 1
  58   29   30 2
  59   29   31 2
  60   32   33 1
  61   32   34 1
  62   32   35 1

#	End of record

