#	Name: ASD08170695
#	Creating user name:	WinNT
#	Creation time:	15. 06. 2019 21:17

#	Modifying user name:	WinNT
#	Modification time:	15. 06. 2019 21:17

#	Program:	/corina/corina34_cracker 3.40 0067  02.08.2006

@<TRIPOS>MOLECULE
ASD08170695
  75   78    0    0    0
SMALL
NO_CHARGES


@<TRIPOS>ATOM
   1 N1            -0.0159     1.3150     0.0224 N.ar    
   2 C2             0.0017    -0.0034     0.0124 C.ar    
   3 C3            -1.2931    -0.7743     0.0243 C.3     
   4 C4            -4.2984    -0.6746     2.4294 C.3     
   5 C5            -5.5932    -1.4455     2.4412 C.2     
   6 N6            -5.8033    -2.5767     3.0361 N.2     
   7 N7            -6.9625    -3.0651     2.9277 N.2     
   8 C8            -7.8359    -2.3975     2.2358 C.2     
   9 S9            -7.0970    -0.9657     1.6538 S.3     
  10 N10           -9.1540    -2.7791     2.0098 N.am    
  11 C11           -3.4530    -1.1158     1.2328 C.3     
  12 C12           -2.1384    -0.3331     1.2208 C.3     
  13 C13            1.2122    -0.6808    -0.0095 C.ar    
  14 C14            2.3785     0.0690    -0.0202 C.ar    
  15 C15            2.2616     1.4575    -0.0083 C.ar    
  16 N16            1.0600     2.0148     0.0126 N.ar    
  17 N17            3.4043     2.2567    -0.0179 N.am    
  18 C18            3.2889     3.5963    -0.1113 C.2     
  19 O19            2.1992     4.1007    -0.2812 O.2     
  20 C20            4.5141     4.4673    -0.0047 C.3     
  21 C21            4.1152     5.9141    -0.1410 C.ar    
  22 C22            3.7798     6.6468     0.9824 C.ar    
  23 C23            3.4129     7.9745     0.8607 C.ar    
  24 C24            3.3807     8.5720    -0.3842 C.ar    
  25 C25            3.7174     7.8389    -1.5132 C.ar    
  26 C26            4.0905     6.5088    -1.3878 C.ar    
  27 C27           -9.6205    -3.9317     2.5297 C.2     
  28 C28          -11.0488    -4.3451     2.2847 C.3     
  29 O29           -8.8908    -4.6361     3.1947 O.2     
  30 O30          -11.3016    -5.5928     2.9339 O.3     
  31 C31          -12.5523    -6.1101     2.8109 C.ar    
  32 C32          -13.5162    -5.4309     2.0805 C.ar    
  33 C33          -14.7871    -5.9589     1.9570 C.ar    
  34 C34          -15.0982    -7.1631     2.5606 C.ar    
  35 C35          -14.1390    -7.8419     3.2896 C.ar    
  36 C36          -12.8654    -7.3214     3.4109 C.ar    
  37 C37          -14.4818    -9.1541     3.9467 C.3     
  38 C38          -14.1942   -10.2842     2.9920 C.2     
  39 O39          -14.4249   -11.5528     3.3648 O.3     
  40 O40          -13.7559   -10.0482     1.8911 O.2     
  41 C41          -14.1248   -12.5901     2.3941 C.3     
  42 O42            3.6861     8.4244    -2.7392 O.3     
  43 C43            3.2973     9.7985    -2.7923 C.3     
  44 F44            4.1876    10.5647    -2.0324 F       
  45 F45            3.3191    10.2384    -4.1201 F       
  46 F46            2.0044     9.9375    -2.2762 F       
  47 H47           -1.8401    -0.5802    -0.8983 H       
  48 H48           -1.0805    -1.8405     0.1031 H       
  49 H49           -4.5110     0.3916     2.3505 H       
  50 H50           -3.7514    -0.8687     3.3520 H       
  51 H51           -9.7376    -2.2157     1.4779 H       
  52 H52           -3.2404    -2.1820     1.3116 H       
  53 H53           -4.0000    -0.9216     0.3102 H       
  54 H54           -1.5915    -0.5273     2.1434 H       
  55 H55           -2.3511     0.7331     1.1420 H       
  56 H56            1.2451    -1.7603    -0.0176 H       
  57 H57            3.3472    -0.4082    -0.0369 H       
  58 H58            4.2821     1.8485     0.0427 H       
  59 H59            4.9880     4.3107     0.9643 H       
  60 H60            5.2148     4.2073    -0.7981 H       
  61 H61            3.8040     6.1813     1.9566 H       
  62 H62            3.1510     8.5447     1.7397 H       
  63 H63            3.0935     9.6088    -0.4789 H       
  64 H64            4.3530     5.9361    -2.2651 H       
  65 H65          -11.7206    -3.5852     2.6839 H       
  66 H66          -11.2174    -4.4524     1.2132 H       
  67 H67          -13.2738    -4.4899     1.6091 H       
  68 H68          -15.5381    -5.4302     1.3888 H       
  69 H69          -16.0921    -7.5741     2.4629 H       
  70 H70          -12.1166    -7.8521     3.9801 H       
  71 H71          -13.8804    -9.2775     4.8474 H       
  72 H72          -15.5390    -9.1626     4.2117 H       
  73 H73          -14.7257   -12.4342     1.4982 H       
  74 H74          -13.0671   -12.5491     2.1339 H       
  75 H75          -14.3562   -13.5657     2.8216 H       
@<TRIPOS>BOND
   1    1    2 ar
   2    1   16 ar
   3    2    3 1
   4    2   13 ar
   5    3   12 1
   6    3   47 1
   7    3   48 1
   8    4    5 1
   9    4   11 1
  10    4   49 1
  11    4   50 1
  12    5    6 2
  13    5    9 1
  14    6    7 1
  15    7    8 2
  16    8    9 1
  17    8   10 1
  18   10   27 am
  19   10   51 1
  20   11   12 1
  21   11   52 1
  22   11   53 1
  23   12   54 1
  24   12   55 1
  25   13   14 ar
  26   13   56 1
  27   14   15 ar
  28   14   57 1
  29   15   16 ar
  30   15   17 1
  31   17   18 am
  32   17   58 1
  33   18   19 2
  34   18   20 1
  35   20   21 1
  36   20   59 1
  37   20   60 1
  38   21   22 ar
  39   21   26 ar
  40   22   23 ar
  41   22   61 1
  42   23   24 ar
  43   23   62 1
  44   24   25 ar
  45   24   63 1
  46   25   26 ar
  47   25   42 1
  48   26   64 1
  49   27   28 1
  50   27   29 2
  51   28   30 1
  52   28   65 1
  53   28   66 1
  54   30   31 1
  55   31   32 ar
  56   31   36 ar
  57   32   33 ar
  58   32   67 1
  59   33   34 ar
  60   33   68 1
  61   34   35 ar
  62   34   69 1
  63   35   36 ar
  64   35   37 1
  65   36   70 1
  66   37   38 1
  67   37   71 1
  68   37   72 1
  69   38   39 1
  70   38   40 2
  71   39   41 1
  72   41   73 1
  73   41   74 1
  74   41   75 1
  75   42   43 1
  76   43   44 1
  77   43   45 1
  78   43   46 1

#	End of record

