#	Name: ASD02250001
#	Creating user name:	WinNT
#	Creation time:	15. 06. 2019 20:20

#	Modifying user name:	WinNT
#	Modification time:	15. 06. 2019 20:20

#	Program:	/corina/corina34_cracker 3.40 0067  02.08.2006

@<TRIPOS>MOLECULE
ASD02250001
  51   54    0    0    0
SMALL
NO_CHARGES


@<TRIPOS>ATOM
   1 C1            -0.0167     1.3804     0.0096 C.ar    
   2 C2             0.0021    -0.0041     0.0020 C.ar    
   3 C3             1.2110    -0.6789    -0.0131 C.ar    
   4 C4             2.3973     0.0299    -0.0207 C.ar    
   5 C5             2.3774     1.4122    -0.0131 C.ar    
   6 C6             1.1709     2.0870     0.0021 C.ar    
   7 F7            -1.1583    -0.6959     0.0098 F       
   8 C8             3.6717     2.1840    -0.0208 C.3     
   9 C9             3.9685     2.6679    -1.4416 C.3     
  10 O10            3.5603     3.3097     0.8524 O.3     
  11 C11            5.3412     3.3429    -1.4741 C.3     
  12 C12            5.6379     3.8268    -2.8949 C.3     
  13 C13            5.0465     5.1817    -3.1991 C.2     
  14 N14            6.2995     5.6707    -3.3243 N.am    
  15 C15            7.0369     4.4323    -3.0483 C.3     
  16 O16            3.9260     5.6366    -3.2920 O.2     
  17 C17            7.8378     4.4636    -1.7721 C.ar    
  18 C18            8.8856     3.5795    -1.5929 C.ar    
  19 C19            9.6212     3.6063    -0.4240 C.ar    
  20 C20            9.3079     4.5213     0.5707 C.ar    
  21 C21            8.2560     5.4073     0.3885 C.ar    
  22 C22            7.5270     5.3803    -0.7847 C.ar    
  23 O23           10.0298     4.5493     1.7217 O.3     
  24 C24            6.7542     6.9606    -3.6249 C.ar    
  25 C25            5.8432     7.9839    -3.8502 C.ar    
  26 C26            6.2937     9.2554    -4.1467 C.ar    
  27 C27            7.6529     9.5100    -4.2192 C.ar    
  28 C28            8.5631     8.4907    -3.9953 C.ar    
  29 C29            8.1167     7.2192    -3.6925 C.ar    
  30 F30            8.0916    10.7544    -4.5093 F       
  31 H31           -0.9591     1.9078     0.0170 H       
  32 H32            1.2268    -1.7588    -0.0187 H       
  33 H33            3.3404    -0.4962    -0.0321 H       
  34 H34            1.1565     3.1669     0.0080 H       
  35 H35            4.4815     1.5387     0.3198 H       
  36 H36            3.9656     1.8173    -2.1232 H       
  37 H37            3.2049     3.3824    -1.7489 H       
  38 H38            2.8579     3.9281     0.6091 H       
  39 H39            5.3441     4.1934    -0.7925 H       
  40 H40            6.1048     2.6283    -1.1668 H       
  41 H41            5.4053     3.0760    -3.6501 H       
  42 H42            7.5975     4.0483    -3.9006 H       
  43 H43            9.1289     2.8672    -2.3674 H       
  44 H44           10.4394     2.9153    -0.2843 H       
  45 H45            8.0101     6.1205     1.1613 H       
  46 H46            6.7081     6.0698    -0.9270 H       
  47 H47           10.7937     5.1413     1.6926 H       
  48 H48            4.7830     7.7857    -3.7941 H       
  49 H49            5.5854    10.0516    -4.3223 H       
  50 H50            9.6227     8.6911    -4.0530 H       
  51 H51            8.8269     6.4245    -3.5179 H       
@<TRIPOS>BOND
   1    1    2 ar
   2    1    6 ar
   3    1   31 1
   4    2    3 ar
   5    2    7 1
   6    3    4 ar
   7    3   32 1
   8    4    5 ar
   9    4   33 1
  10    5    6 ar
  11    5    8 1
  12    6   34 1
  13    8    9 1
  14    8   10 1
  15    8   35 1
  16    9   11 1
  17    9   36 1
  18    9   37 1
  19   10   38 1
  20   11   12 1
  21   11   39 1
  22   11   40 1
  23   12   13 1
  24   12   15 1
  25   12   41 1
  26   13   14 am
  27   13   16 2
  28   14   15 1
  29   14   24 1
  30   15   17 1
  31   15   42 1
  32   17   18 ar
  33   17   22 ar
  34   18   19 ar
  35   18   43 1
  36   19   20 ar
  37   19   44 1
  38   20   21 ar
  39   20   23 1
  40   21   22 ar
  41   21   45 1
  42   22   46 1
  43   23   47 1
  44   24   25 ar
  45   24   29 ar
  46   25   26 ar
  47   25   48 1
  48   26   27 ar
  49   26   49 1
  50   27   28 ar
  51   27   30 1
  52   28   29 ar
  53   28   50 1
  54   29   51 1

#	End of record

