#	Name: ASD05430562
#	Creating user name:	WinNT
#	Creation time:	15. 06. 2019 21:00

#	Modifying user name:	WinNT
#	Modification time:	15. 06. 2019 21:00

#	Program:	/corina/corina34_cracker 3.40 0067  02.08.2006

@<TRIPOS>MOLECULE
ASD05430562
  35   36    0    0    0
SMALL
NO_CHARGES


@<TRIPOS>ATOM
   1 C1            -0.0717     1.4143     0.0104 C.ar    
   2 C2            -0.0689     0.0087     0.0222 C.ar    
   3 C3             1.1491     2.1003     0.0623 C.ar    
   4 C4             2.3182     1.4000     0.1234 C.ar    
   5 C5             2.3142     0.0110     0.1348 C.ar    
   6 C6             1.1370    -0.6814     0.0854 C.ar    
   7 C7             1.1705     3.6071     0.0503 C.3     
   8 C8             1.1455    -2.1883     0.0982 C.3     
   9 C9             1.7845    -2.7058    -1.1920 C.3     
  10 C10            1.9515    -2.6835     1.3008 C.3     
  11 C11            1.8389     4.1179     1.3282 C.3     
  12 C12            1.9573     4.0963    -1.1673 C.3     
  13 N13           -1.3874    -0.3755    -0.0373 N.pl3   
  14 N14           -2.1443     0.8047    -0.0832 N.2     
  15 N15           -1.3552     1.8204    -0.0590 N.2     
  16 C16           -1.9010    -1.7474    -0.0503 C.3     
  17 H17            3.2575     1.9316     0.1630 H       
  18 H18            3.2497    -0.5265     0.1831 H       
  19 H19            0.1492     3.9846    -0.0014 H       
  20 H20            0.1222    -2.5568     0.1701 H       
  21 H21            1.7906    -3.7957    -1.1827 H       
  22 H22            1.2103    -2.3530    -2.0487 H       
  23 H23            2.8078    -2.3373    -1.2639 H       
  24 H24            1.4963    -2.3149     2.2200 H       
  25 H25            1.9576    -3.7734     1.3101 H       
  26 H26            2.9748    -2.3150     1.2289 H       
  27 H27            1.2784     3.7694     2.1957 H       
  28 H28            2.8602     3.7405     1.3799 H       
  29 H29            1.8544     5.2078     1.3195 H       
  30 H30            1.4811     3.7324    -2.0778 H       
  31 H31            1.9727     5.1862    -1.1760 H       
  32 H32            2.9785     3.7189    -1.1156 H       
  33 H33           -1.9613    -2.1225     0.9713 H       
  34 H34           -2.8934    -1.7596    -0.5010 H       
  35 H35           -1.2305    -2.3809    -0.6309 H       
@<TRIPOS>BOND
   1    1    2 ar
   2    1    3 ar
   3    1   15 1
   4    2   13 1
   5    2    6 ar
   6    3    4 ar
   7    3    7 1
   8    4    5 ar
   9    4   17 1
  10    5    6 ar
  11    5   18 1
  12    6    8 1
  13    7   11 1
  14    7   12 1
  15    7   19 1
  16    8    9 1
  17    8   10 1
  18    8   20 1
  19    9   21 1
  20    9   22 1
  21    9   23 1
  22   10   24 1
  23   10   25 1
  24   10   26 1
  25   11   27 1
  26   11   28 1
  27   11   29 1
  28   12   30 1
  29   12   31 1
  30   12   32 1
  31   13   14 1
  32   13   16 1
  33   14   15 2
  34   16   33 1
  35   16   34 1
  36   16   35 1

#	End of record

