#	Name: ASD01882112
#	Creating user name:	WinNT
#	Creation time:	15. 06. 2019 19:43

#	Modifying user name:	WinNT
#	Modification time:	15. 06. 2019 19:43

#	Program:	/corina/corina34_cracker 3.40 0067  02.08.2006

@<TRIPOS>MOLECULE
ASD01882112
  56   59    0    0    0
SMALL
NO_CHARGES


@<TRIPOS>ATOM
   1 C1            -0.7585    -0.6021    -2.2555 C.2     
   2 C2            -0.4030    -1.1976    -1.0638 C.2     
   3 C3            -1.3736    -1.3543    -0.0515 C.2     
   4 C4            -2.6352    -0.9253    -0.2497 C.2     
   5 N5            -2.9977    -0.3347    -1.4264 N.pl3   
   6 C6            -2.0825    -0.1592    -2.4319 C.2     
   7 C7            -4.1885     0.1786    -1.8756 C.2     
   8 C8            -3.9769     0.6421    -3.1252 C.2     
   9 N9            -2.6974     0.4317    -3.4485 N.2     
  10 N10            0.9019    -1.6408    -0.8611 N.pl3   
  11 Cl11           0.4137    -0.3951    -3.5191 Cl      
  12 C12           -5.4892     0.2175    -1.1155 C.3     
  13 C13            1.1856    -3.0692    -0.6664 C.3     
  14 C14            1.9850    -3.2410     0.6290 C.3     
  15 C15            3.2312    -2.3542     0.5761 C.3     
  16 C16            2.8109    -0.8873     0.4589 C.3     
  17 C17            2.0214    -0.6894    -0.8441 C.3     
  18 C18            4.0379    -2.5463     1.8345 C.ar    
  19 C19            5.2999    -3.1067     1.7677 C.ar    
  20 C20            3.5183    -2.1569     3.0546 C.ar    
  21 C21            4.2583    -2.3332     4.2091 C.ar    
  22 C22            5.5176    -2.8991     4.1431 C.ar    
  23 C23            6.0396    -3.2834     2.9219 C.ar    
  24 C24            5.8690    -3.5255     0.4366 C.3     
  25 C25            5.9622    -2.3072    -0.4842 C.3     
  26 O26            7.1727    -4.0783     0.6286 O.3     
  27 C27            4.9577    -4.5771    -0.1995 C.3     
  28 C28           -6.3368    -0.9991    -1.4926 C.3     
  29 F29           -5.6425    -2.1697    -1.1690 F       
  30 F30           -7.5443    -0.9630    -0.7870 F       
  31 F31           -6.5988    -0.9771    -2.8667 F       
  32 H32           -1.1043    -1.8199     0.8850 H       
  33 H33           -3.3696    -1.0505     0.5322 H       
  34 H34           -4.7179     1.1082    -3.7578 H       
  35 H35           -5.2851     0.2003    -0.0449 H       
  36 H36           -6.0302     1.1296    -1.3676 H       
  37 H37            0.2486    -3.6212    -0.5935 H       
  38 H38            1.7683    -3.4440    -1.5079 H       
  39 H39            1.3675    -2.9504     1.4789 H       
  40 H40            2.2847    -4.2835     0.7360 H       
  41 H41            3.8359    -2.6288    -0.2881 H       
  42 H42            2.1855    -0.6189     1.3104 H       
  43 H43            3.6983    -0.2546     0.4448 H       
  44 H44            2.6744    -0.8700    -1.6979 H       
  45 H45            1.6348     0.3288    -0.8860 H       
  46 H46            2.5343    -1.7147     3.1062 H       
  47 H47            3.8526    -2.0283     5.1624 H       
  48 H48            6.0958    -3.0364     5.0448 H       
  49 H49            7.0236    -3.7255     2.8703 H       
  50 H50            6.8127    -1.6928    -0.1890 H       
  51 H51            6.0940    -2.6394    -1.5140 H       
  52 H52            5.0462    -1.7216    -0.4058 H       
  53 H53            7.1895    -4.8558     1.2034 H       
  54 H54            3.9807    -4.1376    -0.4003 H       
  55 H55            5.3994    -4.9232    -1.1340 H       
  56 H56            4.8439    -5.4197     0.4826 H       
@<TRIPOS>BOND
   1    1    2 2
   2    1   11 1
   3    1    6 1
   4    2    3 1
   5    2   10 1
   6    3    4 2
   7    3   32 1
   8    4    5 1
   9    4   33 1
  10    5    6 1
  11    5    7 1
  12    6    9 2
  13    7    8 2
  14    7   12 1
  15    8    9 1
  16    8   34 1
  17   10   13 1
  18   10   17 1
  19   12   28 1
  20   12   35 1
  21   12   36 1
  22   13   14 1
  23   13   37 1
  24   13   38 1
  25   14   15 1
  26   14   39 1
  27   14   40 1
  28   15   16 1
  29   15   18 1
  30   15   41 1
  31   16   17 1
  32   16   42 1
  33   16   43 1
  34   17   44 1
  35   17   45 1
  36   18   19 ar
  37   18   20 ar
  38   19   24 1
  39   19   23 ar
  40   20   21 ar
  41   20   46 1
  42   21   22 ar
  43   21   47 1
  44   22   23 ar
  45   22   48 1
  46   23   49 1
  47   24   25 1
  48   24   26 1
  49   24   27 1
  50   25   50 1
  51   25   51 1
  52   25   52 1
  53   26   53 1
  54   27   54 1
  55   27   55 1
  56   27   56 1
  57   28   29 1
  58   28   30 1
  59   28   31 1

#	End of record

