#	Name: ASD02030615
#	Creating user name:	WinNT
#	Creation time:	15. 06. 2019 20:15

#	Modifying user name:	WinNT
#	Modification time:	15. 06. 2019 20:15

#	Program:	/corina/corina34_cracker 3.40 0067  02.08.2006

@<TRIPOS>MOLECULE
ASD02030615
  64   67    0    0    0
SMALL
NO_CHARGES


@<TRIPOS>ATOM
   1 C1             0.1634     1.1531    -0.0920 C.ar    
   2 C2             0.0212    -0.2181    -0.0963 C.ar    
   3 C3             1.1479    -1.0251    -0.1663 C.ar    
   4 C4             2.4036    -0.4461    -0.2254 C.ar    
   5 C5             2.5449     0.9356    -0.2145 C.ar    
   6 C6             1.4236     1.7331    -0.1568 C.ar    
   7 C7             1.5036     3.2391    -0.1753 C.3     
   8 C8             3.9432     1.4939    -0.2523 C.3     
   9 C9             3.9362     2.9473    -0.7230 C.3     
  10 N10            2.8929     3.6627     0.0288 N.am    
  11 C11            1.0060     3.7589    -1.5255 C.3     
  12 O12            1.7453     3.1357    -2.5776 O.3     
  13 C13            1.4251     3.4898    -3.8509 C.ar    
  14 C14            3.2023     4.6675     0.8721 C.2     
  15 O15            4.3662     4.9498     1.0800 O.2     
  16 C16            2.1262     5.4264     1.5442 C.ar    
  17 C17            0.7728     4.2104    -6.4430 C.ar    
  18 C18            0.0988     4.7817    -5.3739 C.ar    
  19 C19            0.4241     4.4220    -4.0805 C.ar    
  20 C20            2.1034     2.9231    -4.9197 C.ar    
  21 C21            1.7781     3.2828    -6.2131 C.ar    
  22 C22            2.3070     5.8948     2.8465 C.ar    
  23 C23            0.9271     5.6823     0.8772 C.ar    
  24 C24           -0.0731     6.3910     1.5102 C.ar    
  25 C25            0.1104     6.8476     2.8033 C.ar    
  26 C26            1.2987     6.6022     3.4680 C.ar    
  27 O27            0.4526     4.5645    -7.7162 O.3     
  28 C28            1.1875     3.9364    -8.7686 C.3     
  29 C29            0.6906     4.4570   -10.1188 C.3     
  30 O30            1.0190    -2.3779    -0.1764 O.3     
  31 C31           -0.2951    -2.9058     0.0151 C.3     
  32 C32           -0.9458    -3.1605    -1.3460 C.3     
  33 C33           -0.2082    -4.2205     0.7929 C.3     
  34 H34           -0.7133     1.7819    -0.0423 H       
  35 H35           -0.9620    -0.6621    -0.0451 H       
  36 H36            3.2808    -1.0737    -0.2800 H       
  37 H37            0.8799     3.6452     0.6211 H       
  38 H38            4.3768     1.4426     0.7465 H       
  39 H39            4.5485     0.8986    -0.9360 H       
  40 H40            4.9077     3.4021    -0.5299 H       
  41 H41            3.7146     2.9884    -1.7895 H       
  42 H42           -0.0527     3.5247    -1.6372 H       
  43 H43            1.1461     4.8388    -1.5732 H       
  44 H44           -0.6840     5.5040    -5.5528 H       
  45 H45           -0.1013     4.8663    -3.2481 H       
  46 H46            2.8861     2.2008    -4.7408 H       
  47 H47            2.3029     2.8379    -7.0456 H       
  48 H48            3.2340     5.7036     3.3666 H       
  49 H49            0.7828     5.3267    -0.1323 H       
  50 H50           -1.0012     6.5900     0.9950 H       
  51 H51           -0.6756     7.4022     3.2942 H       
  52 H52            1.4372     6.9650     4.4758 H       
  53 H53            2.2474     4.1655    -8.6586 H       
  54 H54            1.0420     2.8573    -8.7194 H       
  55 H55           -0.3694     4.2278   -10.2288 H       
  56 H56            0.8360     5.5361   -10.1680 H       
  57 H57            1.2511     3.9778   -10.9215 H       
  58 H58           -0.8957    -2.1904     0.5768 H       
  59 H59           -0.3451    -3.8759    -1.9077 H       
  60 H60           -1.9481    -3.5631    -1.1999 H       
  61 H61           -1.0077    -2.2238    -1.9000 H       
  62 H62            0.2554    -4.0390     1.7626 H       
  63 H63           -1.2105    -4.6231     0.9390 H       
  64 H64            0.3925    -4.9359     0.2312 H       
@<TRIPOS>BOND
   1    1    2 ar
   2    1    6 ar
   3    1   34 1
   4    2    3 ar
   5    2   35 1
   6    3    4 ar
   7    3   30 1
   8    4    5 ar
   9    4   36 1
  10    5    6 ar
  11    5    8 1
  12    6    7 1
  13    7   10 1
  14    7   11 1
  15    7   37 1
  16    8    9 1
  17    8   38 1
  18    8   39 1
  19    9   10 1
  20    9   40 1
  21    9   41 1
  22   10   14 am
  23   11   12 1
  24   11   42 1
  25   11   43 1
  26   12   13 1
  27   13   20 ar
  28   13   19 ar
  29   14   15 2
  30   14   16 1
  31   16   23 ar
  32   16   22 ar
  33   17   18 ar
  34   17   21 ar
  35   17   27 1
  36   18   19 ar
  37   18   44 1
  38   19   45 1
  39   20   21 ar
  40   20   46 1
  41   21   47 1
  42   22   26 ar
  43   22   48 1
  44   23   24 ar
  45   23   49 1
  46   24   25 ar
  47   24   50 1
  48   25   26 ar
  49   25   51 1
  50   26   52 1
  51   27   28 1
  52   28   29 1
  53   28   53 1
  54   28   54 1
  55   29   55 1
  56   29   56 1
  57   29   57 1
  58   30   31 1
  59   31   32 1
  60   31   33 1
  61   31   58 1
  62   32   59 1
  63   32   60 1
  64   32   61 1
  65   33   62 1
  66   33   63 1
  67   33   64 1

#	End of record

