#	Name: ASD06170047
#	Creating user name:	WinNT
#	Creation time:	15. 06. 2019 21:05

#	Modifying user name:	WinNT
#	Modification time:	15. 06. 2019 21:05

#	Program:	/corina/corina34_cracker 3.40 0067  02.08.2006

@<TRIPOS>MOLECULE
ASD06170047
  67   71    0    0    0
SMALL
NO_CHARGES


@<TRIPOS>ATOM
   1 N1             0.1061    -1.8116     1.1866 N.pl3   
   2 N2             0.0319    -0.7792     0.2469 N.am    
   3 C3             1.2859    -0.3872    -0.0604 C.2     
   4 C4             2.1937    -1.2274     0.7371 C.2     
   5 C5             1.3941    -2.0765     1.4767 C.2     
   6 C6             3.6605    -1.1738     0.7445 C.2     
   7 O7             4.2935    -1.9316     1.4559 O.2     
   8 N8             4.3063    -0.2855    -0.0367 N.am    
   9 O9             1.6037     0.4883    -0.8434 O.2     
  10 C10            1.8810    -3.1230     2.4456 C.3     
  11 C11           -1.0468    -2.4991     1.7735 C.3     
  12 C12            5.6996    -0.1682     0.0406 C.ar    
  13 C13            6.4805    -1.2958     0.2594 C.ar    
  14 C14            7.8556    -1.1790     0.3350 C.ar    
  15 C15            8.4557     0.0664     0.1921 C.ar    
  16 C16            7.6752     1.1912    -0.0263 C.ar    
  17 C17            6.3010     1.0744    -0.1072 C.ar    
  18 F18            8.6161    -2.2751     0.5483 F       
  19 O19            9.8087     0.1817     0.2669 O.3     
  20 N20           11.9972    -0.7181    -3.1112 N.ar    
  21 C21           10.6856    -0.7154    -3.1558 C.ar    
  22 C22            9.9153    -0.4175    -2.0389 C.ar    
  23 C23           10.5348    -0.1134    -0.8395 C.ar    
  24 C24           11.9474    -0.1193    -0.8032 C.ar    
  25 C25           12.6463     0.1784     0.3762 C.ar    
  26 C26           14.0112     0.1627     0.3749 C.ar    
  27 C27           14.7215    -0.1476    -0.7936 C.ar    
  28 C28           14.0662    -0.4409    -1.9547 C.ar    
  29 C29           12.6619    -0.4334    -1.9849 C.ar    
  30 O30           16.0801    -0.1558    -0.7701 O.3     
  31 C31           16.7482    -0.4792    -1.9912 C.3     
  32 O32           14.6889     0.4511     1.5179 O.3     
  33 C33           13.9084     0.7595     2.6745 C.3     
  34 C34           -1.2007    -0.2174    -0.3110 C.3     
  35 C35           -1.5975     1.0045     0.4769 C.ar    
  36 C36           -1.1328     2.2507     0.1002 C.ar    
  37 C37           -1.4967     3.3715     0.8229 C.ar    
  38 C38           -2.3256     3.2460     1.9220 C.ar    
  39 C39           -2.7910     1.9999     2.2981 C.ar    
  40 C40           -2.4306     0.8797     1.5728 C.ar    
  41 H41            3.8060     0.2727    -0.6523 H       
  42 H42            2.0277    -4.0658     1.9187 H       
  43 H43            2.8257    -2.8009     2.8838 H       
  44 H44            1.1420    -3.2591     3.2351 H       
  45 H45           -1.3081    -3.3602     1.1584 H       
  46 H46           -0.7963    -2.8342     2.7800 H       
  47 H47           -1.8937    -1.8145     1.8188 H       
  48 H48            6.0134    -2.2631     0.3708 H       
  49 H49            8.1420     2.1589    -0.1370 H       
  50 H50            5.6941     1.9505    -0.2818 H       
  51 H51           10.1915    -0.9513    -4.0867 H       
  52 H52            8.8374    -0.4226    -2.1065 H       
  53 H53           12.1072     0.4191     1.2805 H       
  54 H54           14.6259    -0.6781    -2.8474 H       
  55 H55           16.4547    -1.4787    -2.3122 H       
  56 H56           16.4730     0.2443    -2.7586 H       
  57 H57           17.8264    -0.4500    -1.8342 H       
  58 H58           14.5707     0.9696     3.5144 H       
  59 H59           13.2892     1.6336     2.4726 H       
  60 H60           13.2698    -0.0894     2.9189 H       
  61 H61           -1.0350     0.0596    -1.3521 H       
  62 H62           -1.9965    -0.9601    -0.2549 H       
  63 H63           -0.4852     2.3487    -0.7585 H       
  64 H64           -1.1331     4.3450     0.5291 H       
  65 H65           -2.6094     4.1216     2.4871 H       
  66 H66           -3.4384     1.9019     3.1570 H       
  67 H67           -2.7972    -0.0934     1.8645 H       
@<TRIPOS>BOND
   1    1    2 1
   2    1    5 1
   3    1   11 1
   4    2    3 am
   5    2   34 1
   6    3    4 1
   7    3    9 2
   8    4    5 2
   9    4    6 1
  10    5   10 1
  11    6    7 2
  12    6    8 am
  13    8   12 1
  14    8   41 1
  15   10   42 1
  16   10   43 1
  17   10   44 1
  18   11   45 1
  19   11   46 1
  20   11   47 1
  21   12   13 ar
  22   12   17 ar
  23   13   14 ar
  24   13   48 1
  25   14   15 ar
  26   14   18 1
  27   15   16 ar
  28   15   19 1
  29   16   17 ar
  30   16   49 1
  31   17   50 1
  32   19   23 1
  33   20   21 ar
  34   20   29 ar
  35   21   22 ar
  36   21   51 1
  37   22   23 ar
  38   22   52 1
  39   23   24 ar
  40   24   25 ar
  41   24   29 ar
  42   25   26 ar
  43   25   53 1
  44   26   27 ar
  45   26   32 1
  46   27   28 ar
  47   27   30 1
  48   28   29 ar
  49   28   54 1
  50   30   31 1
  51   31   55 1
  52   31   56 1
  53   31   57 1
  54   32   33 1
  55   33   58 1
  56   33   59 1
  57   33   60 1
  58   34   35 1
  59   34   61 1
  60   34   62 1
  61   35   36 ar
  62   35   40 ar
  63   36   37 ar
  64   36   63 1
  65   37   38 ar
  66   37   64 1
  67   38   39 ar
  68   38   65 1
  69   39   40 ar
  70   39   66 1
  71   40   67 1

#	End of record

