#	Name: ASD01151016
#	Creating user name:	WinNT
#	Creation time:	15. 06. 2019 19:05

#	Modifying user name:	WinNT
#	Modification time:	15. 06. 2019 19:05

#	Program:	/corina/corina34_cracker 3.40 0067  02.08.2006

@<TRIPOS>MOLECULE
ASD01151016
  45   46    0    0    0
SMALL
NO_CHARGES


@<TRIPOS>ATOM
   1 C1            -0.0022     1.4213     0.1754 C.2     
   2 C2             0.0687     0.0372     0.0869 C.2     
   3 N3            -1.1734    -0.4136    -0.1245 N.2     
   4 C4            -2.0091     0.5906    -0.1734 C.2     
   5 N5            -1.3436     1.7443     0.0111 N.pl3   
   6 C6            -3.4948     0.4725    -0.3966 C.3     
   7 C7            -1.9225     3.0900     0.0256 C.3     
   8 C8             1.0693     2.3171     0.3938 C.2     
   9 O9             0.8367     3.6454     0.4555 O.3     
  10 O10            2.2017     1.8907     0.5263 O.2     
  11 C11            1.9660     4.4921     0.6788 C.3     
  12 C12            2.9765     4.3039    -0.4545 C.3     
  13 N13            1.2155    -0.7353     0.1968 N.pl3   
  14 C14           -4.1908     0.1980     0.9380 C.3     
  15 C15           -2.0351     3.6037    -1.3867 C.ar    
  16 C16            1.5092     5.9518     0.7176 C.3     
  17 C17            2.6213     4.1271     2.0122 C.3     
  18 C18           -3.2291     3.4834    -2.0728 C.ar    
  19 C19           -3.3324     3.9545    -3.3682 C.ar    
  20 C20           -2.2418     4.5464    -3.9774 C.ar    
  21 C21           -1.0480     4.6675    -3.2910 C.ar    
  22 C22           -0.9460     4.2003    -1.9940 C.ar    
  23 H23           -3.8738     1.4029    -0.8194 H       
  24 H24           -3.6945    -0.3478    -1.0860 H       
  25 H25           -2.9130     3.0546     0.4794 H       
  26 H26           -1.2814     3.7551     0.6041 H       
  27 H27            2.5096     4.5639    -1.4045 H       
  28 H28            3.8379     4.9497    -0.2843 H       
  29 H29            3.3019     3.2639    -0.4822 H       
  30 H30            2.0737    -0.3102     0.3506 H       
  31 H31            1.1592    -1.7006     0.1199 H       
  32 H32           -3.9202     0.9730     1.6550 H       
  33 H33           -5.2709     0.1996     0.7916 H       
  34 H34           -3.8771    -0.7742     1.3182 H       
  35 H35            0.7893     6.0859     1.5250 H       
  36 H36            2.3706     6.5976     0.8879 H       
  37 H37            1.0423     6.2118    -0.2324 H       
  38 H38            2.9467     3.0872     1.9846 H       
  39 H39            3.4827     4.7729     2.1825 H       
  40 H40            1.9014     4.2612     2.8196 H       
  41 H41           -4.0812     3.0210    -1.5968 H       
  42 H42           -4.2650     3.8599    -3.9045 H       
  43 H43           -2.3222     4.9138    -4.9898 H       
  44 H44           -0.1958     5.1296    -3.7671 H       
  45 H45           -0.0134     4.2949    -1.4577 H       
@<TRIPOS>BOND
   1    1    2 2
   2    1    8 1
   3    1    5 1
   4    2    3 1
   5    2   13 1
   6    3    4 2
   7    4    5 1
   8    4    6 1
   9    5    7 1
  10    6   14 1
  11    6   23 1
  12    6   24 1
  13    7   15 1
  14    7   25 1
  15    7   26 1
  16    8    9 1
  17    8   10 2
  18    9   11 1
  19   11   12 1
  20   11   16 1
  21   11   17 1
  22   12   27 1
  23   12   28 1
  24   12   29 1
  25   13   30 1
  26   13   31 1
  27   14   32 1
  28   14   33 1
  29   14   34 1
  30   15   18 ar
  31   15   22 ar
  32   16   35 1
  33   16   36 1
  34   16   37 1
  35   17   38 1
  36   17   39 1
  37   17   40 1
  38   18   19 ar
  39   18   41 1
  40   19   20 ar
  41   19   42 1
  42   20   21 ar
  43   20   43 1
  44   21   22 ar
  45   21   44 1
  46   22   45 1

#	End of record

