#	Name: ASD02401024
#	Creating user name:	WinNT
#	Creation time:	15. 06. 2019 20:20

#	Modifying user name:	WinNT
#	Modification time:	15. 06. 2019 20:20

#	Program:	/corina/corina34_cracker 3.40 0067  02.08.2006

@<TRIPOS>MOLECULE
ASD02401024
  35   36    0    0    0
SMALL
NO_CHARGES


@<TRIPOS>ATOM
   1 C1            -0.0168     1.3866     0.0097 C.ar    
   2 C2             0.0021    -0.0041     0.0020 C.ar    
   3 C3             1.2131    -0.6879    -0.0133 C.ar    
   4 C4             2.3953     0.0067    -0.0204 C.ar    
   5 C5             2.3819     1.4070    -0.0128 C.ar    
   6 C6             1.1598     2.0906     0.0022 C.ar    
   7 C7             3.6451     2.1560    -0.0204 C.2     
   8 O8             4.7024     1.5617    -0.0333 O.2     
   9 C9             3.6277     3.6628    -0.0121 C.3     
  10 C10            5.0426     4.1816    -0.0223 C.ar    
  11 C11            5.6795     4.4256    -1.2251 C.ar    
  12 C12            6.9764     4.9012    -1.2371 C.ar    
  13 C13            7.6398     5.1340    -0.0411 C.ar    
  14 C14            6.9985     4.8883     1.1643 C.ar    
  15 C15            5.6996     4.4181     1.1710 C.ar    
  16 O16           -1.1648    -0.6960     0.0099 O.3     
  17 C17           -1.0736    -2.1220     0.0014 C.3     
  18 O18            8.9159     5.6014    -0.0504 O.3     
  19 C19            9.5367     5.8179     1.2184 C.3     
  20 H20           -0.9599     1.9129     0.0170 H       
  21 H21            1.2223    -1.7678    -0.0192 H       
  22 H22            3.3352    -0.5253    -0.0316 H       
  23 H23            1.1441     3.1705     0.0078 H       
  24 H24            3.1015     4.0250    -0.8954 H       
  25 H25            3.1179     4.0154     0.8845 H       
  26 H26            5.1627     4.2440    -2.1558 H       
  27 H27            7.4736     5.0913    -2.1768 H       
  28 H28            7.5128     5.0687     2.0967 H       
  29 H29            5.1999     4.2267     2.1092 H       
  30 H30           -0.5465    -2.4470    -0.8957 H       
  31 H31           -0.5287    -2.4565     0.8842 H       
  32 H32           -2.0759    -2.5503     0.0091 H       
  33 H33            8.9607     6.5499     1.7845 H       
  34 H34            9.5728     4.8786     1.7702 H       
  35 H35           10.5500     6.1903     1.0683 H       
@<TRIPOS>BOND
   1    1    2 ar
   2    1    6 ar
   3    1   20 1
   4    2    3 ar
   5    2   16 1
   6    3    4 ar
   7    3   21 1
   8    4    5 ar
   9    4   22 1
  10    5    6 ar
  11    5    7 1
  12    6   23 1
  13    7    8 2
  14    7    9 1
  15    9   10 1
  16    9   24 1
  17    9   25 1
  18   10   11 ar
  19   10   15 ar
  20   11   12 ar
  21   11   26 1
  22   12   13 ar
  23   12   27 1
  24   13   14 ar
  25   13   18 1
  26   14   15 ar
  27   14   28 1
  28   15   29 1
  29   16   17 1
  30   17   30 1
  31   17   31 1
  32   17   32 1
  33   18   19 1
  34   19   33 1
  35   19   34 1
  36   19   35 1

#	End of record

