#	Name: ASD01910511
#	Creating user name:	WinNT
#	Creation time:	15. 06. 2019 19:56

#	Modifying user name:	WinNT
#	Modification time:	15. 06. 2019 19:56

#	Program:	/corina/corina34_cracker 3.40 0067  02.08.2006

@<TRIPOS>MOLECULE
ASD01910511
  42   45    0    0    0
SMALL
NO_CHARGES


@<TRIPOS>ATOM
   1 O1             0.0875     0.2016     0.1081 O.3     
   2 C2             0.1324    -1.0087     0.6903 C.2     
   3 N3             1.4136    -1.2918     0.8748 N.2     
   4 C4             2.0870    -0.2363     0.3941 C.2     
   5 N5             1.2147     0.6203    -0.0500 N.2     
   6 C6            -1.0142    -1.8522     1.0519 C.2     
   7 C7            -2.3328    -1.5476     0.8557 C.2     
   8 C8            -3.0851    -2.6234     1.3431 C.2     
   9 C9            -2.2211    -3.5494     1.8201 C.2     
  10 N10           -0.9539    -3.0922     1.6428 N.pl3   
  11 C11            3.9746     1.1707     1.1793 C.3     
  12 C12            3.5849    -0.0721     0.3727 C.3     
  13 C13            4.0601     0.0930    -1.0726 C.3     
  14 C14            5.5844     0.2270    -1.0981 C.3     
  15 C15            5.9967     1.4732    -0.3083 C.3     
  16 N16            5.4207     1.3900     1.0408 N.am    
  17 C17            6.2042     1.5121     2.1307 C.2     
  18 C18            7.6672     1.6479     1.9772 C.ar    
  19 O19            5.7069     1.5105     3.2400 O.2     
  20 C20            8.1942     2.5990     1.1015 C.ar    
  21 C21            9.5604     2.7225     0.9612 C.ar    
  22 C22           10.4113     1.9044     1.6870 C.ar    
  23 C23            9.8936     0.9561     2.5595 C.ar    
  24 C24            8.5277     0.8292     2.7120 C.ar    
  25 F25           11.7490     2.0296     1.5452 F       
  26 F26           10.7280     0.1609     3.2644 F       
  27 H27           -2.7218    -0.6449     0.4082 H       
  28 H28           -4.1624    -2.7003     1.3391 H       
  29 H29           -2.4932    -4.4958     2.2637 H       
  30 H30           -0.1427    -3.5596     1.8965 H       
  31 H31            3.4353     2.0378     0.7978 H       
  32 H32            3.7272     1.0170     2.2296 H       
  33 H33            4.0542    -0.9525     0.8117 H       
  34 H34            3.7624    -0.7792    -1.6546 H       
  35 H35            3.6097     0.9874    -1.5030 H       
  36 H36            6.0349    -0.6562    -0.6453 H       
  37 H37            5.9241     0.3211    -2.1295 H       
  38 H38            7.0836     1.5191    -0.2394 H       
  39 H39            5.6224     2.3649    -0.8110 H       
  40 H40            7.5327     3.2370     0.5343 H       
  41 H41            9.9681     3.4581     0.2837 H       
  42 H42            8.1251     0.0919     3.3908 H       
@<TRIPOS>BOND
   1    1    2 1
   2    1    5 1
   3    2    3 2
   4    2    6 1
   5    3    4 1
   6    4    5 2
   7    4   12 1
   8    6    7 2
   9    6   10 1
  10    7    8 1
  11    7   27 1
  12    8    9 2
  13    8   28 1
  14    9   10 1
  15    9   29 1
  16   10   30 1
  17   11   12 1
  18   11   16 1
  19   11   31 1
  20   11   32 1
  21   12   13 1
  22   12   33 1
  23   13   14 1
  24   13   34 1
  25   13   35 1
  26   14   15 1
  27   14   36 1
  28   14   37 1
  29   15   16 1
  30   15   38 1
  31   15   39 1
  32   16   17 am
  33   17   18 1
  34   17   19 2
  35   18   20 ar
  36   18   24 ar
  37   20   21 ar
  38   20   40 1
  39   21   22 ar
  40   21   41 1
  41   22   23 ar
  42   22   25 1
  43   23   24 ar
  44   23   26 1
  45   24   42 1

#	End of record

