#	Name: ASD04590477
#	Creating user name:	WinNT
#	Creation time:	15. 06. 2019 20:50

#	Modifying user name:	WinNT
#	Modification time:	15. 06. 2019 20:50

#	Program:	/corina/corina34_cracker 3.40 0067  02.08.2006

@<TRIPOS>MOLECULE
ASD04590477
  56   61    0    0    0
SMALL
NO_CHARGES


@<TRIPOS>ATOM
   1 C1            -0.0167     1.3832     0.0096 C.ar    
   2 C2             0.0021    -0.0041     0.0020 C.ar    
   3 C3             2.4020     0.0223    -0.0207 C.ar    
   4 C4             2.3769     1.4283    -0.0129 C.ar    
   5 C5             1.1624     2.0987     0.0022 C.ar    
   6 N6             3.7040    -0.3552    -0.0356 N.2     
   7 C7             4.4709     0.7083    -0.0375 C.2     
   8 N8             3.6969     1.8375    -0.0238 N.pl3   
   9 C9             5.9482     0.6906    -0.0521 C.2     
  10 C10            6.7657    -0.4632    -0.0669 C.2     
  11 C11            8.0580    -0.0539    -0.0777 C.2     
  12 N12            8.0646     1.3050    -0.0703 N.pl3   
  13 N13            6.7360     1.7480    -0.0596 N.2     
  14 N14            6.3190    -1.7942    -0.0697 N.am    
  15 C15            7.2110    -2.8044    -0.0844 C.2     
  16 O16            8.4030    -2.5630    -0.0952 O.2     
  17 C17            1.1969    -0.6870    -0.0130 C.ar    
  18 C18            6.7417    -4.2026    -0.0874 C.ar    
  19 C19            5.3842    -4.4859    -0.0752 C.ar    
  20 C20            7.6734    -5.2705    -0.1088 C.ar    
  21 C21            7.1971    -6.6040    -0.1116 C.ar    
  22 C22            5.8110    -6.8445    -0.0933 C.ar    
  23 C23            4.9353    -5.8013    -0.0779 C.ar    
  24 C24           -1.2962    -0.7693     0.0108 C.3     
  25 N25           -1.7317    -1.0105    -1.3713 N.3     
  26 C26           -2.8603    -1.9518    -1.4113 C.3     
  27 C27           -0.6175    -1.4976    -2.1974 C.3     
  28 C28           -1.0994    -1.6784    -3.6393 C.3     
  29 O29           -2.2160    -2.5719    -3.6550 O.3     
  30 C30           -3.3197    -2.1280    -2.8611 C.3     
  31 N31            8.9877    -5.0378    -0.1266 N.ar    
  32 C32            9.8283    -6.0482    -0.1466 C.ar    
  33 C33            9.3599    -7.3637    -0.1498 C.ar    
  34 N34            8.0712    -7.6163    -0.1321 N.ar    
  35 H35           -0.9614     1.9066     0.0169 H       
  36 H36            1.1403     3.1784     0.0079 H       
  37 H37            4.0155     2.7537    -0.0223 H       
  38 H38            8.9277    -0.6940    -0.0898 H       
  39 H39            8.8529     1.8703    -0.0752 H       
  40 H40            5.3683    -1.9867    -0.0611 H       
  41 H41            1.2037    -1.7669    -0.0185 H       
  42 H42            4.6690    -3.6767    -0.0630 H       
  43 H43            5.4403    -7.8589    -0.0958 H       
  44 H44            3.8737    -5.9997    -0.0636 H       
  45 H45           -1.1522    -1.7232     0.5181 H       
  46 H46           -2.0559    -0.1898     0.5353 H       
  47 H47           -2.5453    -2.9149    -1.0097 H       
  48 H48           -3.6831    -1.5591    -0.8140 H       
  49 H49            0.1968    -0.7734    -2.1739 H       
  50 H50           -0.2667    -2.4535    -1.8083 H       
  51 H51           -1.4000    -0.7130    -4.0463 H       
  52 H52           -0.2926    -2.0935    -4.2433 H       
  53 H53           -4.1187    -2.8683    -2.9023 H       
  54 H54           -3.6848    -1.1756    -3.2455 H       
  55 H55           10.8915    -5.8591    -0.1610 H       
  56 H56           10.0647    -8.1819    -0.1667 H       
@<TRIPOS>BOND
   1    1    2 ar
   2    1    5 ar
   3    1   35 1
   4    2   17 ar
   5    2   24 1
   6    3    4 ar
   7    3    6 1
   8    3   17 ar
   9    4    5 ar
  10    4    8 1
  11    5   36 1
  12    6    7 2
  13    7    8 1
  14    7    9 1
  15    8   37 1
  16    9   10 1
  17    9   13 2
  18   10   11 2
  19   10   14 1
  20   11   12 1
  21   11   38 1
  22   12   13 1
  23   12   39 1
  24   14   15 am
  25   14   40 1
  26   15   16 2
  27   15   18 1
  28   17   41 1
  29   18   19 ar
  30   18   20 ar
  31   19   23 ar
  32   19   42 1
  33   20   21 ar
  34   20   31 ar
  35   21   22 ar
  36   21   34 ar
  37   22   23 ar
  38   22   43 1
  39   23   44 1
  40   24   25 1
  41   24   45 1
  42   24   46 1
  43   25   26 1
  44   25   27 1
  45   26   30 1
  46   26   47 1
  47   26   48 1
  48   27   28 1
  49   27   49 1
  50   27   50 1
  51   28   29 1
  52   28   51 1
  53   28   52 1
  54   29   30 1
  55   30   53 1
  56   30   54 1
  57   31   32 ar
  58   32   33 ar
  59   32   55 1
  60   33   34 ar
  61   33   56 1

#	End of record

