#	Name: ASD00310007
#	Creating user name:	WinNT
#	Creation time:	15. 06. 2019 18:33

#	Modifying user name:	WinNT
#	Modification time:	15. 06. 2019 18:33

#	Program:	/corina/corina34_cracker 3.40 0067  02.08.2006

@<TRIPOS>MOLECULE
ASD00310007
  87   90    0    0    0
SMALL
NO_CHARGES


@<TRIPOS>ATOM
   1 O1             0.7815     1.8740     0.3862 O.3     
   2 O2             0.3873    -1.6584     1.2762 O.3     
   3 O3             2.7943     1.4788    -0.7269 O.3     
   4 O4            -0.8424    -1.8421     3.2511 O.3     
   5 O5            -1.6071     1.1851    -1.0413 O.3     
   6 O6             2.7299    -0.9213     2.7427 O.3     
   7 O7             2.4132     2.0850    -4.3203 O.3     
   8 O8             4.1517     1.3408     1.7215 O.3     
   9 O9            -3.6102     2.0831    -0.2491 O.3     
  10 O10            3.3082     4.2855    -0.9262 O.3     
  11 O11            1.0299    -4.3841     1.3916 O.3     
  12 O12           -1.6560    -5.3491     1.2013 O.3     
  13 O13           -3.6939    -3.3691     1.5300 O.3     
  14 O14            4.1731     5.1916    -3.4977 O.3     
  15 O15           -2.7086     0.9213    -3.6051 O.3     
  16 O16            4.6636     2.6495    -4.5717 O.3     
  17 O17           -3.1781     3.7100    -4.0345 O.3     
  18 O18           -2.9128     5.3666    -1.7179 O.3     
  19 O19            1.8253    -0.7149    -4.1453 O.3     
  20 O20           -2.8913     0.1351     3.6423 O.3     
  21 O21           -3.4045     3.7404     2.0900 O.3     
  22 C22            0.7833    -0.2963     1.4493 C.3     
  23 C23            0.3342     0.5249     0.2378 C.3     
  24 C24            2.3081    -0.2182     1.5723 C.3     
  25 C25            2.7261     1.2516     1.6791 C.3     
  26 C26            2.2019     2.0130     0.4588 C.3     
  27 C27            2.5039     2.2266    -1.9095 C.3     
  28 C28            0.2465    -2.3827     2.4999 C.3     
  29 C29           -1.1927     0.5012     0.1430 C.3     
  30 C30            3.4863     3.3956    -2.0300 C.3     
  31 C31           -0.0299    -3.8566     2.1919 C.3     
  32 C32            2.6474     1.3210    -3.1355 C.3     
  33 C33           -1.3532    -3.9713     1.4289 C.3     
  34 C34           -2.4679    -3.3328     2.2633 C.3     
  35 C35           -2.0973    -1.8791     2.5686 C.3     
  36 C36            3.2155     4.1428    -3.3395 C.3     
  37 C37           -3.0236     1.2210    -1.2263 C.3     
  38 C38           -3.3423     1.7488    -2.6275 C.3     
  39 C39            3.3315     3.1632    -4.5103 C.3     
  40 C40           -2.8205     3.1833    -2.7552 C.3     
  41 C41           -3.4477     4.0430    -1.6535 C.3     
  42 C42           -3.1250     3.4266    -0.2899 C.3     
  43 C43            1.6275     0.1836    -3.0519 C.3     
  44 C44           -3.1774    -1.2520     3.4523 C.3     
  45 C45           -3.7984     4.2460     0.8128 C.3     
  46 H46            3.6866    -0.9127     2.8833 H       
  47 H47            4.4873     2.2452     1.7892 H       
  48 H48            3.8995     5.0505    -0.9384 H       
  49 H49            1.8998    -4.3392     1.8117 H       
  50 H50           -0.9874    -5.8184     0.6838 H       
  51 H51           -3.9870    -4.2609     1.2978 H       
  52 H52            4.0610     5.7076    -4.3078 H       
  53 H53           -2.9888    -0.0038    -3.5787 H       
  54 H54            4.8097     2.0203    -5.2912 H       
  55 H55           -2.8197     3.2093    -4.7802 H       
  56 H56           -3.0763     5.8164    -2.5581 H       
  57 H57            1.2120    -1.4624    -4.1561 H       
  58 H58           -3.5366     0.5978     4.1943 H       
  59 H59           -3.7946     4.2136     2.8377 H       
  60 H60            0.3230     0.1049     2.3522 H       
  61 H61            0.7616     0.0979    -0.6695 H       
  62 H62            2.7685    -0.6665     0.6919 H       
  63 H63            2.3069     1.6845     2.5874 H       
  64 H64            2.4597     3.0682     0.5504 H       
  65 H65            1.4852     2.6108    -1.8565 H       
  66 H66            1.1655    -2.2986     3.0800 H       
  67 H67           -1.6187     0.9957     1.0160 H       
  68 H68           -1.5384    -0.5318     0.1058 H       
  69 H69            4.5077     3.0150    -2.0304 H       
  70 H70           -0.0962    -4.4174     3.1242 H       
  71 H71            3.6545     0.9051    -3.1643 H       
  72 H72           -1.2692    -3.4537     0.4733 H       
  73 H73           -2.5853    -3.8834     3.1966 H       
  74 H74           -2.0205    -1.3200     1.6360 H       
  75 H75            2.2116     4.5666    -3.3161 H       
  76 H76           -3.4302     0.2158    -1.1152 H       
  77 H77           -4.4209     1.7373    -2.7845 H       
  78 H78            3.0978     3.6800    -5.4411 H       
  79 H79           -1.7356     3.1874    -2.6495 H       
  80 H80           -4.5284     4.0798    -1.7911 H       
  81 H81           -2.0458     3.4281    -0.1365 H       
  82 H82            0.6194     0.5954    -3.0978 H       
  83 H83            1.7582    -0.3532    -2.1123 H       
  84 H84           -3.1935    -1.7554     4.4189 H       
  85 H85           -4.1491    -1.3598     2.9703 H       
  86 H86           -4.8811     4.1717     0.7108 H       
  87 H87           -3.4961     5.2896     0.7261 H       
@<TRIPOS>BOND
   1    1   23 1
   2    1   26 1
   3    2   22 1
   4    2   28 1
   5    3   26 1
   6    3   27 1
   7    4   28 1
   8    4   35 1
   9    5   29 1
  10    5   37 1
  11    6   24 1
  12    6   46 1
  13    7   32 1
  14    7   39 1
  15    8   25 1
  16    8   47 1
  17    9   37 1
  18    9   42 1
  19   10   30 1
  20   10   48 1
  21   11   31 1
  22   11   49 1
  23   12   33 1
  24   12   50 1
  25   13   34 1
  26   13   51 1
  27   14   36 1
  28   14   52 1
  29   15   38 1
  30   15   53 1
  31   16   39 1
  32   16   54 1
  33   17   40 1
  34   17   55 1
  35   18   41 1
  36   18   56 1
  37   19   43 1
  38   19   57 1
  39   20   44 1
  40   20   58 1
  41   21   45 1
  42   21   59 1
  43   22   23 1
  44   22   24 1
  45   22   60 1
  46   23   29 1
  47   23   61 1
  48   24   25 1
  49   24   62 1
  50   25   26 1
  51   25   63 1
  52   26   64 1
  53   27   30 1
  54   27   32 1
  55   27   65 1
  56   28   31 1
  57   28   66 1
  58   29   67 1
  59   29   68 1
  60   30   36 1
  61   30   69 1
  62   31   33 1
  63   31   70 1
  64   32   43 1
  65   32   71 1
  66   33   34 1
  67   33   72 1
  68   34   35 1
  69   34   73 1
  70   35   44 1
  71   35   74 1
  72   36   39 1
  73   36   75 1
  74   37   38 1
  75   37   76 1
  76   38   40 1
  77   38   77 1
  78   39   78 1
  79   40   41 1
  80   40   79 1
  81   41   42 1
  82   41   80 1
  83   42   45 1
  84   42   81 1
  85   43   82 1
  86   43   83 1
  87   44   84 1
  88   44   85 1
  89   45   86 1
  90   45   87 1

#	End of record

