#	Name: ASD01870157
#	Creating user name:	WinNT
#	Creation time:	15. 06. 2019 19:38

#	Modifying user name:	WinNT
#	Modification time:	15. 06. 2019 19:38

#	Program:	/corina/corina34_cracker 3.40 0067  02.08.2006

@<TRIPOS>MOLECULE
ASD01870157
  21   20    0    0    0
SMALL
NO_CHARGES


@<TRIPOS>ATOM
   1 N1            -0.0178     1.4608     0.0101 N.pl3   
   2 C2             0.0021    -0.0041     0.0020 C.3     
   3 C3             0.0225    -0.5140     1.4200 C.2     
   4 N4             0.0428    -1.8402     1.6590 N.am    
   5 C5             0.0626    -2.3359     3.0374 C.3     
   6 O6             0.0206     0.2691     2.3461 O.2     
   7 C7             1.1463     2.1542     0.0027 C.1     
   8 C8            -1.2963     2.1760     0.0200 C.3     
   9 O9             2.1841     2.7724    -0.0039 O.2     
  10 C10            0.0830    -3.8428     3.0291 C.2     
  11 O11            0.0812    -4.4412     1.9795 O.2     
  12 O12            0.1032    -4.5201     4.1878 O.3     
  13 H13           -0.8878    -0.3767    -0.5053 H       
  14 H14            0.8920    -0.3525    -0.5222 H       
  15 H15            0.0443    -2.4665     0.9183 H       
  16 H16            0.9524    -1.9633     3.5448 H       
  17 H17           -0.8273    -1.9875     3.5616 H       
  18 H18           -1.6085     2.3477     1.0501 H       
  19 H19           -1.1814     3.1328    -0.4892 H       
  20 H20           -2.0503     1.5794    -0.4935 H       
  21 H21            0.1158    -5.4854     4.1319 H       
@<TRIPOS>BOND
   1    1    2 1
   2    1    7 1
   3    1    8 1
   4    2    3 1
   5    2   13 1
   6    2   14 1
   7    3    4 am
   8    3    6 2
   9    4    5 1
  10    4   15 1
  11    5   10 1
  12    5   16 1
  13    5   17 1
  14    7    9 2
  15    8   18 1
  16    8   19 1
  17    8   20 1
  18   10   11 2
  19   10   12 1
  20   12   21 1

#	End of record

