#	Name: ASD01470054
#	Creating user name:	WinNT
#	Creation time:	15. 06. 2019 19:21

#	Modifying user name:	WinNT
#	Modification time:	15. 06. 2019 19:21

#	Program:	/corina/corina34_cracker 3.40 0067  02.08.2006

@<TRIPOS>MOLECULE
ASD01470054
  40   43    0    0    0
SMALL
NO_CHARGES


@<TRIPOS>ATOM
   1 C1             0.3619     1.4922    -0.0455 C.3     
   2 C2             0.2610    -0.0114    -0.0362 C.ar    
   3 C3             1.2564    -0.7645     0.5609 C.ar    
   4 C4             1.1708    -2.1412     0.5732 C.ar    
   5 C5             0.0754    -2.7748    -0.0188 C.ar    
   6 C6            -0.9262    -2.0077    -0.6195 C.ar    
   7 C7            -0.8297    -0.6321    -0.6200 C.ar    
   8 C8            -2.1115    -2.6819    -1.2611 C.3     
   9 N9            -0.0159    -4.1394    -0.0107 N.2     
  10 C10            0.1416    -4.8008     1.1115 C.2     
  11 N11            0.1889    -6.1601     1.2561 N.am    
  12 C12            0.3543    -6.6672     2.4664 C.2     
  13 O13            0.4063    -7.8642     2.6715 O.2     
  14 C14            0.4718    -5.6703     3.5506 C.2     
  15 C15            0.6499    -5.9054     4.9019 C.2     
  16 C16            0.9635    -4.9171     5.9514 C.2     
  17 O17            1.1166    -3.7211     5.7860 O.2     
  18 N18            1.0497    -5.5708     7.1225 N.am    
  19 C19            0.8200    -6.9321     6.9608 C.ar    
  20 C20            0.5612    -7.2001     5.6088 C.ar    
  21 C21            0.2978    -8.5008     5.1875 C.ar    
  22 C22            0.2920    -9.5297     6.1071 C.ar    
  23 C23            0.5472    -9.2685     7.4433 C.ar    
  24 C24            0.8058    -7.9819     7.8721 C.ar    
  25 S25            0.3413    -4.1038     2.7281 S.3     
  26 H26            0.8923     1.8153    -0.9412 H       
  27 H27           -0.6392     1.9235    -0.0406 H       
  28 H28            0.9054     1.8254     0.8387 H       
  29 H29            2.1026    -0.2733     1.0181 H       
  30 H30            1.9488    -2.7278     1.0390 H       
  31 H31           -1.6033    -0.0379    -1.0836 H       
  32 H32           -2.9032    -2.8053    -0.5221 H       
  33 H33           -2.4761    -2.0688    -2.0852 H       
  34 H34           -1.8125    -3.6592    -1.6399 H       
  35 H35            0.1023    -6.7419     0.4848 H       
  36 H36            1.2471    -5.1466     7.9723 H       
  37 H37            0.0985    -8.7035     4.1455 H       
  38 H38            0.0878   -10.5400     5.7846 H       
  39 H39            0.5409   -10.0789     8.1571 H       
  40 H40            1.0033    -7.7915     8.9166 H       
@<TRIPOS>BOND
   1    1    2 1
   2    1   26 1
   3    1   27 1
   4    1   28 1
   5    2    3 ar
   6    2    7 ar
   7    3    4 ar
   8    3   29 1
   9    4    5 ar
  10    4   30 1
  11    5    6 ar
  12    5    9 1
  13    6    7 ar
  14    6    8 1
  15    7   31 1
  16    8   32 1
  17    8   33 1
  18    8   34 1
  19    9   10 2
  20   10   11 1
  21   10   25 1
  22   11   12 am
  23   11   35 1
  24   12   13 2
  25   12   14 1
  26   14   15 2
  27   14   25 1
  28   15   16 1
  29   15   20 1
  30   16   17 2
  31   16   18 am
  32   18   19 1
  33   18   36 1
  34   19   20 ar
  35   19   24 ar
  36   20   21 ar
  37   21   22 ar
  38   21   37 1
  39   22   23 ar
  40   22   38 1
  41   23   24 ar
  42   23   39 1
  43   24   40 1

#	End of record

