#	Name: ASD01913046
#	Creating user name:	WinNT
#	Creation time:	15. 06. 2019 20:00

#	Modifying user name:	WinNT
#	Modification time:	15. 06. 2019 20:00

#	Program:	/corina/corina34_cracker 3.40 0067  02.08.2006

@<TRIPOS>MOLECULE
ASD01913046
  44   47    0    0    0
SMALL
NO_CHARGES


@<TRIPOS>ATOM
   1 C1            -0.0638     2.2370     1.7223 C.ar    
   2 C2            -0.0121     0.9963     1.1083 C.ar    
   3 C3            -1.1807     0.3362     0.7789 C.ar    
   4 C4            -2.4148     0.9217     1.0665 C.ar    
   5 C5            -2.4607     2.1719     1.6858 C.ar    
   6 C6            -1.2856     2.8204     2.0153 C.ar    
   7 F7             1.0818     2.8780     2.0417 F       
   8 C8            -3.6720     0.2187     0.7152 C.2     
   9 N9            -4.9299     0.6652     0.9338 N.2     
  10 C10           -5.7207    -0.2694     0.4687 C.2     
  11 O11           -4.9404    -1.2424    -0.0120 O.3     
  12 N12           -3.7726    -0.9473     0.1304 N.2     
  13 C13           -7.2276    -0.2514     0.4748 C.3     
  14 C14           -7.7453    -0.3362    -0.9629 C.3     
  15 C15           -9.2748    -0.2849    -0.9600 C.3     
  16 C16           -9.8205    -1.4840    -0.1781 C.3     
  17 N17           -9.2144    -1.4912     1.1603 N.am    
  18 C18           -7.7500    -1.4501     1.2729 C.3     
  19 C19           -9.9870    -1.5348     2.2638 C.2     
  20 C20          -11.4582    -1.4913     2.1375 C.ar    
  21 O21           -9.4732    -1.6099     3.3630 O.2     
  22 C22          -12.1121    -2.3585     1.2597 C.ar    
  23 C23          -13.4851    -2.3141     1.1461 C.ar    
  24 C24          -14.2168    -1.4104     1.9015 C.ar    
  25 C25          -13.5726    -0.5468     2.7742 C.ar    
  26 C26          -12.2005    -0.5868     2.8998 C.ar    
  27 F27           -1.1289    -0.8734     0.1793 F       
  28 F28           -3.6516     2.7447     1.9668 F       
  29 F29          -15.5623    -1.3710     1.7864 F       
  30 H30            0.9433     0.5442     0.8862 H       
  31 H31           -1.3199     3.7877     2.4945 H       
  32 H32           -7.5785     0.6728     0.9339 H       
  33 H33           -7.3549     0.5025    -1.5394 H       
  34 H34           -7.4142    -1.2718    -1.4135 H       
  35 H35           -9.6070     0.6393    -0.4871 H       
  36 H36           -9.6420    -0.3218    -1.9856 H       
  37 H37          -10.9035    -1.3995    -0.0884 H       
  38 H38           -9.5658    -2.4067    -0.6995 H       
  39 H39           -7.3265    -2.3700     0.8698 H       
  40 H40           -7.4669    -1.3432     2.3201 H       
  41 H41          -11.5431    -3.0625     0.6706 H       
  42 H42          -13.9918    -2.9840     0.4673 H       
  43 H43          -14.1472     0.1554     3.3600 H       
  44 H44          -11.6997     0.0861     3.5801 H       
@<TRIPOS>BOND
   1    1    2 ar
   2    1    7 1
   3    1    6 ar
   4    2    3 ar
   5    2   30 1
   6    3    4 ar
   7    3   27 1
   8    4    5 ar
   9    4    8 1
  10    5    6 ar
  11    5   28 1
  12    6   31 1
  13    8    9 1
  14    8   12 2
  15    9   10 2
  16   10   11 1
  17   10   13 1
  18   11   12 1
  19   13   14 1
  20   13   18 1
  21   13   32 1
  22   14   15 1
  23   14   33 1
  24   14   34 1
  25   15   16 1
  26   15   35 1
  27   15   36 1
  28   16   17 1
  29   16   37 1
  30   16   38 1
  31   17   18 1
  32   17   19 am
  33   18   39 1
  34   18   40 1
  35   19   20 1
  36   19   21 2
  37   20   22 ar
  38   20   26 ar
  39   22   23 ar
  40   22   41 1
  41   23   24 ar
  42   23   42 1
  43   24   25 ar
  44   24   29 1
  45   25   26 ar
  46   25   43 1
  47   26   44 1

#	End of record

