#	Name: ASD01912325
#	Creating user name:	WinNT
#	Creation time:	15. 06. 2019 19:59

#	Modifying user name:	WinNT
#	Modification time:	15. 06. 2019 19:59

#	Program:	/corina/corina34_cracker 3.40 0067  02.08.2006

@<TRIPOS>MOLECULE
ASD01912325
  51   54    0    0    0
SMALL
NO_CHARGES


@<TRIPOS>ATOM
   1 N1            -0.0165     1.3639     0.0095 N.pl3   
   2 C2             0.0021    -0.0041     0.0020 C.2     
   3 C3             1.2701    -0.4445    -0.0124 C.2     
   4 C4             2.1345     0.7382    -0.0143 C.ar    
   5 C5             3.5182     0.9280    -0.0272 C.ar    
   6 C6             4.0303     2.2072    -0.0259 C.ar    
   7 C7             3.1774     3.3051    -0.0114 C.ar    
   8 C8             1.8111     3.1324     0.0014 C.ar    
   9 C9             1.2731     1.8497    -0.0002 C.ar    
  10 C10           -1.2200    -0.8859     0.0097 C.3     
  11 C11           -1.5692    -1.2727    -1.4043 C.2     
  12 O12           -0.8925    -0.8717    -2.3274 O.2     
  13 N13           -2.6337    -2.0641    -1.6431 N.am    
  14 C14           -2.9817    -2.4462    -3.0177 C.3     
  15 C15           -2.9868    -3.9768    -3.1185 C.3     
  16 C16           -3.8116    -4.5285    -1.9764 C.2     
  17 C17           -3.4763    -4.0877    -0.5685 C.3     
  18 C18           -3.4554    -2.5593    -0.5312 C.3     
  19 C19           -4.8093    -5.3813    -2.2051 C.2     
  20 C20           -5.5790    -5.8927    -1.1111 C.1     
  21 C21           -6.2100    -6.3120    -0.2143 C.1     
  22 C22           -6.9796    -6.8235     0.8797 C.ar    
  23 C23           -8.0254    -7.7181     0.6343 C.ar    
  24 C24           -8.7587    -8.2024     1.7018 C.ar    
  25 C25           -8.4259    -7.7792     2.9820 C.ar    
  26 C26           -7.3791    -6.8922     3.1542 C.ar    
  27 N27           -6.6910    -6.4483     2.1225 N.ar    
  28 C28           -7.0164    -6.4317     4.5425 C.3     
  29 F29            5.3681     2.3956    -0.0383 F       
  30 H30           -0.8179     1.9104     0.0164 H       
  31 H31            1.5920    -1.4754    -0.0205 H       
  32 H32            4.1830     0.0770    -0.0378 H       
  33 H33            3.5903     4.3030    -0.0098 H       
  34 H34            1.1579     3.9924     0.0129 H       
  35 H35           -1.0161    -1.7843     0.5923 H       
  36 H36           -2.0551    -0.3456     0.4554 H       
  37 H37           -3.9707    -2.0604    -3.2650 H       
  38 H38           -2.2444    -2.0370    -3.7085 H       
  39 H39           -3.4261    -4.2806    -4.0686 H       
  40 H40           -1.9659    -4.3526    -3.0488 H       
  41 H41           -4.2308    -4.4629     0.1230 H       
  42 H42           -2.4961    -4.4727    -0.2871 H       
  43 H43           -3.0299    -2.2245     0.4149 H       
  44 H44           -4.4724    -2.1802    -0.6313 H       
  45 H45           -5.0377    -5.6869    -3.2154 H       
  46 H46           -8.2575    -8.0261    -0.3745 H       
  47 H47           -9.5726    -8.8944     1.5435 H       
  48 H48           -8.9804    -8.1396     3.8359 H       
  49 H49           -6.2760    -7.1090     4.9681 H       
  50 H50           -6.6025    -5.4245     4.4947 H       
  51 H51           -7.9084    -6.4286     5.1689 H       
@<TRIPOS>BOND
   1    1    2 1
   2    1    9 1
   3    1   30 1
   4    2    3 2
   5    2   10 1
   6    3    4 1
   7    3   31 1
   8    4    5 ar
   9    4    9 ar
  10    5    6 ar
  11    5   32 1
  12    6    7 ar
  13    6   29 1
  14    7    8 ar
  15    7   33 1
  16    8    9 ar
  17    8   34 1
  18   10   11 1
  19   10   35 1
  20   10   36 1
  21   11   12 2
  22   11   13 am
  23   13   14 1
  24   13   18 1
  25   14   15 1
  26   14   37 1
  27   14   38 1
  28   15   16 1
  29   15   39 1
  30   15   40 1
  31   16   17 1
  32   16   19 2
  33   17   18 1
  34   17   41 1
  35   17   42 1
  36   18   43 1
  37   18   44 1
  38   19   20 1
  39   19   45 1
  40   20   21 3
  41   21   22 1
  42   22   23 ar
  43   22   27 ar
  44   23   24 ar
  45   23   46 1
  46   24   25 ar
  47   24   47 1
  48   25   26 ar
  49   25   48 1
  50   26   27 ar
  51   26   28 1
  52   28   49 1
  53   28   50 1
  54   28   51 1

#	End of record

