#	Name: ASD03331034
#	Creating user name:	WinNT
#	Creation time:	15. 06. 2019 20:38

#	Modifying user name:	WinNT
#	Modification time:	15. 06. 2019 20:38

#	Program:	/corina/corina34_cracker 3.40 0067  02.08.2006

@<TRIPOS>MOLECULE
ASD03331034
  57   59    0    0    0
SMALL
NO_CHARGES


@<TRIPOS>ATOM
   1 N1            -0.4942     1.2309     0.6507 N.pl3   
   2 C2            -0.4204    -0.1263     0.6059 C.2     
   3 C3             0.8439    -0.9400     0.6988 C.3     
   4 N4             1.6534    -0.4465     1.8238 N.3     
   5 C5             2.5514     0.6292     1.3993 C.3     
   6 C6             1.9101     1.4749     0.3029 C.3     
   7 C7             0.6395     2.1408     0.8381 C.3     
   8 C8            -1.8066     1.5739     0.5022 C.2     
   9 N9            -2.5163     0.4756     0.3886 N.2     
  10 C10           -1.6904    -0.5921     0.4515 C.2     
  11 C11           -2.0922    -2.0073     0.3676 C.2     
  12 O12           -1.2515    -2.8834     0.4370 O.2     
  13 N13           -3.3915    -2.3309     0.2139 N.am    
  14 C14            2.4040    -1.5415     2.4526 C.3     
  15 C15           -3.6510    -4.2230    -1.3138 C.3     
  16 C16           -3.7911    -3.7379     0.1305 C.3     
  17 C17           -5.2471    -3.8819     0.5779 C.3     
  18 C18           -5.7089    -5.3234     0.3549 C.3     
  19 C19           -5.3609    -3.5341     2.0635 C.3     
  20 C20           -6.1275    -2.9324    -0.2371 C.3     
  21 O21           -4.5274    -3.4713    -2.1559 O.3     
  22 C22           -2.3402     2.9527     0.4743 C.ar    
  23 C23           -3.2493     3.3331    -0.5168 C.ar    
  24 C24           -3.7447     4.6227    -0.5373 C.ar    
  25 C25           -3.3414     5.5372     0.4217 C.ar    
  26 C26           -2.4391     5.1643     1.4069 C.ar    
  27 C27           -1.9425     3.8770     1.4408 C.ar    
  28 F28           -3.8284     6.7971     0.3971 F       
  29 F29           -3.6424     2.4419    -1.4530 F       
  30 Cl30          -1.9385     6.3175     2.6041 Cl      
  31 H31            0.5917    -1.9876     0.8633 H       
  32 H32            1.4095    -0.8415    -0.2278 H       
  33 H33            2.7784     1.2648     2.2552 H       
  34 H34            3.4769     0.1948     1.0214 H       
  35 H35            2.6130     2.2428    -0.0203 H       
  36 H36            1.6561     0.8379    -0.5443 H       
  37 H37            0.4568     3.0674     0.2940 H       
  38 H38            0.7610     2.3578     1.8993 H       
  39 H39           -4.0621    -1.6322     0.1586 H       
  40 H40            3.0156    -2.0411     1.7012 H       
  41 H41            3.0469    -1.1389     3.2353 H       
  42 H42            1.7065    -2.2572     2.8878 H       
  43 H43           -2.6218    -4.0851    -1.6452 H       
  44 H44           -3.9120    -5.2798    -1.3690 H       
  45 H45           -3.1509    -4.3364     0.7785 H       
  46 H46           -5.0817    -5.9999     0.9355 H       
  47 H47           -6.7462    -5.4261     0.6736 H       
  48 H48           -5.6278    -5.5713    -0.7035 H       
  49 H49           -5.0319    -2.5071     2.2224 H       
  50 H50           -6.3981    -3.6367     2.3823 H       
  51 H51           -4.7337    -4.2105     2.6441 H       
  52 H52           -6.1945    -3.2909    -1.2643 H       
  53 H53           -7.1250    -2.8960     0.2008 H       
  54 H54           -5.6901    -1.9341    -0.2285 H       
  55 H55           -4.4913    -3.7258    -3.0881 H       
  56 H56           -4.4472     4.9183    -1.3025 H       
  57 H57           -1.2438     3.5870     2.2115 H       
@<TRIPOS>BOND
   1    1    2 1
   2    1    7 1
   3    1    8 1
   4    2    3 1
   5    2   10 2
   6    3    4 1
   7    3   31 1
   8    3   32 1
   9    4    5 1
  10    4   14 1
  11    5    6 1
  12    5   33 1
  13    5   34 1
  14    6    7 1
  15    6   35 1
  16    6   36 1
  17    7   37 1
  18    7   38 1
  19    8    9 2
  20    8   22 1
  21    9   10 1
  22   10   11 1
  23   11   12 2
  24   11   13 am
  25   13   16 1
  26   13   39 1
  27   14   40 1
  28   14   41 1
  29   14   42 1
  30   15   21 1
  31   15   16 1
  32   15   43 1
  33   15   44 1
  34   16   17 1
  35   16   45 1
  36   17   18 1
  37   17   19 1
  38   17   20 1
  39   18   46 1
  40   18   47 1
  41   18   48 1
  42   19   49 1
  43   19   50 1
  44   19   51 1
  45   20   52 1
  46   20   53 1
  47   20   54 1
  48   21   55 1
  49   22   23 ar
  50   22   27 ar
  51   23   24 ar
  52   23   29 1
  53   24   25 ar
  54   24   56 1
  55   25   26 ar
  56   25   28 1
  57   26   27 ar
  58   26   30 1
  59   27   57 1

#	End of record

