#	Name: ASD05730135
#	Creating user name:	WinNT
#	Creation time:	15. 06. 2019 21:02

#	Modifying user name:	WinNT
#	Modification time:	15. 06. 2019 21:02

#	Program:	/corina/corina34_cracker 3.40 0067  02.08.2006

@<TRIPOS>MOLECULE
ASD05730135
  66   70    0    0    0
SMALL
NO_CHARGES


@<TRIPOS>ATOM
   1 N1            -0.9396    -0.5030    -0.1725 N.3     
   2 C2             0.4177    -0.4498     0.3883 C.3     
   3 C3             1.4144    -0.9825    -0.6438 C.3     
   4 N4             1.3226    -0.1782    -1.8703 N.3     
   5 C5            -0.0348    -0.2313    -2.4311 C.3     
   6 C6            -1.0315     0.3014    -1.3990 C.3     
   7 C7             2.2711    -0.5908    -2.8128 C.ar    
   8 C8             2.1867    -1.8582    -3.3738 C.ar    
   9 C9             3.1228    -2.2653    -4.3038 C.ar    
  10 C10            4.1486    -1.4074    -4.6777 C.ar    
  11 C11            4.2330    -0.1397    -4.1166 C.ar    
  12 C12            3.2937     0.2696    -3.1914 C.ar    
  13 N13            5.0986    -1.8207    -5.6204 N.pl3   
  14 C14            5.5172    -3.1367    -5.6477 C.ar    
  15 N15            6.3269    -3.5285    -6.6197 N.ar    
  16 C16            6.7510    -4.7857    -6.6790 C.ar    
  17 C17            6.3218    -5.6936    -5.6867 C.ar    
  18 C18            5.4641    -5.2294    -4.6780 C.ar    
  19 N19            5.0972    -3.9618    -4.6948 N.ar    
  20 N20            7.5895    -5.2004    -7.6828 N.am    
  21 C21            8.0158    -6.4768    -7.7385 C.2     
  22 C22            7.5896    -7.4440    -6.7249 C.2     
  23 C23            6.7539    -7.0390    -5.7187 C.2     
  24 C24            8.0252    -4.2451    -8.7045 C.3     
  25 C25            9.3186    -3.5662    -8.2495 C.3     
  26 O26            8.7595    -6.8286    -8.6369 O.2     
  27 C27            8.0587    -8.8480    -6.7874 C.ar    
  28 C28            7.1952    -9.8563    -7.2132 C.ar    
  29 C29            7.6378   -11.1623    -7.2693 C.ar    
  30 C30            8.9353   -11.4726    -6.9037 C.ar    
  31 C31            9.7977   -10.4773    -6.4802 C.ar    
  32 C32            9.3688    -9.1658    -6.4256 C.ar    
  33 Cl33          10.4519    -7.9176    -5.8940 Cl      
  34 S34            9.4918   -13.1428    -6.9772 S.o     
  35 C35           10.1503   -13.2798    -8.6619 C.3     
  36 O36           10.7486   -13.1230    -6.1189 O.3     
  37 C37            3.3850     1.6453    -2.5830 C.3     
  38 F38            4.5472     2.2791    -3.0355 F       
  39 F39            2.2670     2.3971    -2.9600 F       
  40 F40            3.4255     1.5369    -1.1888 F       
  41 H41           -1.2233    -1.4561    -0.3431 H       
  42 H42            0.6682     0.5814     0.6372 H       
  43 H43            0.4636    -1.0629     1.2883 H       
  44 H44            2.4251    -0.9170    -0.2409 H       
  45 H45            1.1804    -2.0223    -0.8724 H       
  46 H46           -0.0806     0.3818    -3.3311 H       
  47 H47           -0.2853    -1.2626    -2.6800 H       
  48 H48           -2.0421     0.2359    -1.8019 H       
  49 H49           -0.7975     1.3411    -1.1704 H       
  50 H50            1.3893    -2.5257    -3.0824 H       
  51 H51            3.0572    -3.2510    -4.7401 H       
  52 H52            5.0309     0.5275    -4.4075 H       
  53 H53            5.4625    -1.1828    -6.2540 H       
  54 H54            5.1147    -5.8944    -3.9021 H       
  55 H55            6.4287    -7.7374    -4.9618 H       
  56 H56            8.2017    -4.7717    -9.6424 H       
  57 H57            7.2513    -3.4916    -8.8510 H       
  58 H58            9.1420    -3.0397    -7.3116 H       
  59 H59           10.0924    -4.3197    -8.1030 H       
  60 H60            9.6427    -2.8555    -9.0097 H       
  61 H61            6.1816    -9.6158    -7.4983 H       
  62 H62            6.9695   -11.9439    -7.5990 H       
  63 H63           10.8096   -10.7257    -6.1960 H       
  64 H64           10.9600   -12.5622    -8.7950 H       
  65 H65           10.5292   -14.2890    -8.8230 H       
  66 H66            9.3575   -13.0704    -9.3800 H       
@<TRIPOS>BOND
   1    1    2 1
   2    1    6 1
   3    1   41 1
   4    2    3 1
   5    2   42 1
   6    2   43 1
   7    3    4 1
   8    3   44 1
   9    3   45 1
  10    4    5 1
  11    4    7 1
  12    5    6 1
  13    5   46 1
  14    5   47 1
  15    6   48 1
  16    6   49 1
  17    7    8 ar
  18    7   12 ar
  19    8    9 ar
  20    8   50 1
  21    9   10 ar
  22    9   51 1
  23   10   11 ar
  24   10   13 1
  25   11   12 ar
  26   11   52 1
  27   12   37 1
  28   13   14 1
  29   13   53 1
  30   14   15 ar
  31   14   19 ar
  32   15   16 ar
  33   16   17 ar
  34   16   20 1
  35   17   18 ar
  36   17   23 1
  37   18   19 ar
  38   18   54 1
  39   20   21 am
  40   20   24 1
  41   21   22 1
  42   21   26 2
  43   22   23 2
  44   22   27 1
  45   23   55 1
  46   24   25 1
  47   24   56 1
  48   24   57 1
  49   25   58 1
  50   25   59 1
  51   25   60 1
  52   27   28 ar
  53   27   32 ar
  54   28   29 ar
  55   28   61 1
  56   29   30 ar
  57   29   62 1
  58   30   31 ar
  59   30   34 1
  60   31   32 ar
  61   31   63 1
  62   32   33 1
  63   34   35 1
  64   34   36 1
  65   35   64 1
  66   35   65 1
  67   35   66 1
  68   37   38 1
  69   37   39 1
  70   37   40 1

#	End of record

