#	Name: ASD03080130
#	Creating user name:	WinNT
#	Creation time:	15. 06. 2019 20:26

#	Modifying user name:	WinNT
#	Modification time:	15. 06. 2019 20:26

#	Program:	/corina/corina34_cracker 3.40 0067  02.08.2006

@<TRIPOS>MOLECULE
ASD03080130
  29   30    0    0    0
SMALL
NO_CHARGES


@<TRIPOS>ATOM
   1 C1            -0.0158     1.3142     0.0093 C.ar    
   2 N2             0.0021    -0.0041     0.0020 N.ar    
   3 C3             1.1445    -0.6686    -0.0124 C.ar    
   4 C4             2.3450     0.0496    -0.0200 C.ar    
   5 C5             2.2777     1.4470    -0.0119 C.ar    
   6 N6             1.0915     2.0298     0.0025 N.ar    
   7 C7             3.6480    -0.6483    -0.0357 C.2     
   8 C8             4.7743     0.0507    -0.0427 C.2     
   9 N9             8.1607     0.4091     0.6588 N.3     
  10 C10            6.9411    -0.2551     1.1676 C.3     
  11 C11            6.1027    -0.6608    -0.0587 C.3     
  12 C12            6.9354    -0.2151    -1.2826 C.3     
  13 C13            8.3725    -0.1268    -0.7102 C.3     
  14 C14            9.3151     0.1222     1.5208 C.3     
  15 H15           -0.9678     1.8241     0.0165 H       
  16 H16            1.1510    -1.7486    -0.0179 H       
  17 H17            3.1803     2.0399    -0.0169 H       
  18 H18            3.6824    -1.7278    -0.0415 H       
  19 H19            4.7400     1.1301    -0.0369 H       
  20 H20            7.2128    -1.1412     1.7413 H       
  21 H21            6.3751     0.4359     1.7923 H       
  22 H22            5.9542    -1.7405    -0.0750 H       
  23 H23            6.8818    -0.9592    -2.0772 H       
  24 H24            6.6026     0.7588    -1.6415 H       
  25 H25            8.9807     0.5578    -1.3015 H       
  26 H26            8.8319    -1.1144    -0.6700 H       
  27 H27            9.4889    -0.9535     1.5492 H       
  28 H28           10.1983     0.6226     1.1239 H       
  29 H29            9.1145     0.4845     2.5291 H       
@<TRIPOS>BOND
   1    1    2 ar
   2    1    6 ar
   3    1   15 1
   4    2    3 ar
   5    3    4 ar
   6    3   16 1
   7    4    5 ar
   8    4    7 1
   9    5    6 ar
  10    5   17 1
  11    7    8 2
  12    7   18 1
  13    8   11 1
  14    8   19 1
  15    9   10 1
  16    9   13 1
  17    9   14 1
  18   10   11 1
  19   10   20 1
  20   10   21 1
  21   11   12 1
  22   11   22 1
  23   12   13 1
  24   12   23 1
  25   12   24 1
  26   13   25 1
  27   13   26 1
  28   14   27 1
  29   14   28 1
  30   14   29 1

#	End of record

