#	Name: ASD03731094
#	Creating user name:	WinNT
#	Creation time:	15. 06. 2019 20:45

#	Modifying user name:	WinNT
#	Modification time:	15. 06. 2019 20:45

#	Program:	/corina/corina34_cracker 3.40 0067  02.08.2006

@<TRIPOS>MOLECULE
ASD03731094
  44   49    0    0    0
SMALL
NO_CHARGES


@<TRIPOS>ATOM
   1 O1             1.2918     1.4254    -0.6272 O.3     
   2 C2             1.5820     0.0157    -0.6673 C.3     
   3 O3             2.9235    -0.0432    -1.1865 O.3     
   4 C4             3.5056     1.1398    -0.8305 C.ar    
   5 C5             2.5018     2.0427    -0.4878 C.ar    
   6 C6             4.8328     1.5250    -0.7695 C.ar    
   7 C7             5.1754     2.8128    -0.3686 C.ar    
   8 C8             4.1635     3.7085    -0.0366 C.ar    
   9 C9             2.8395     3.3255    -0.0904 C.ar    
  10 O10            6.4061     3.3827    -0.2252 O.3     
  11 C11            4.8391     5.0050     0.3218 C.3     
  12 C12            6.2668     4.8165    -0.2089 C.3     
  13 N13            3.8077     7.0076     0.7094 N.am    
  14 C14            4.1616     6.1906    -0.3027 C.2     
  15 C15            4.8210     5.2687     1.7983 C.ar    
  16 C16            5.2806     4.5733     2.8945 C.ar    
  17 C17            5.1106     5.0926     4.1655 C.ar    
  18 C18            4.4782     6.3112     4.3322 C.ar    
  19 C19            4.0153     7.0111     3.2375 C.ar    
  20 C20            4.1823     6.4962     1.9542 C.ar    
  21 O21            3.9707     6.3769    -1.4859 O.2     
  22 C22            3.1119     8.2836     0.5253 C.3     
  23 O23           -0.4504     7.5846     0.3734 O.3     
  24 N24           -0.3873     8.0108     1.5033 N.2     
  25 C25            0.8294     8.3470     1.8214 C.2     
  26 C26            1.6282     8.0747     0.6872 C.2     
  27 C27            0.7512     7.5832    -0.2206 C.2     
  28 C28            1.0646     7.1247    -1.6215 C.3     
  29 H29            1.5399    -0.4125     0.3341 H       
  30 H30            0.8903    -0.4988    -1.3343 H       
  31 H31            5.6083     0.8215    -1.0344 H       
  32 H32            2.0642     4.0280     0.1775 H       
  33 H33            6.9936     5.2685     0.4661 H       
  34 H34            6.3634     5.2264    -1.2142 H       
  35 H35            5.7738     3.6217     2.7619 H       
  36 H36            5.4706     4.5474     5.0255 H       
  37 H37            4.3458     6.7166     5.3244 H       
  38 H38            3.5217     7.9617     3.3760 H       
  39 H39            3.4614     8.9988     1.2698 H       
  40 H40            3.3177     8.6689    -0.4734 H       
  41 H41            1.1625     8.7537     2.7648 H       
  42 H42            0.1382     6.8705    -2.1364 H       
  43 H43            1.5722     7.9246    -2.1605 H       
  44 H44            1.7102     6.2474    -1.5807 H       
@<TRIPOS>BOND
   1    1    2 1
   2    1    5 1
   3    2    3 1
   4    2   29 1
   5    2   30 1
   6    3    4 1
   7    4    5 ar
   8    4    6 ar
   9    5    9 ar
  10    6    7 ar
  11    6   31 1
  12    7    8 ar
  13    7   10 1
  14    8    9 ar
  15    8   11 1
  16    9   32 1
  17   10   12 1
  18   11   12 1
  19   11   14 1
  20   11   15 1
  21   12   33 1
  22   12   34 1
  23   13   14 am
  24   13   20 1
  25   13   22 1
  26   14   21 2
  27   15   16 ar
  28   15   20 ar
  29   16   17 ar
  30   16   35 1
  31   17   18 ar
  32   17   36 1
  33   18   19 ar
  34   18   37 1
  35   19   20 ar
  36   19   38 1
  37   22   26 1
  38   22   39 1
  39   22   40 1
  40   23   24 1
  41   23   27 1
  42   24   25 2
  43   25   26 1
  44   25   41 1
  45   26   27 2
  46   27   28 1
  47   28   42 1
  48   28   43 1
  49   28   44 1

#	End of record

