#	Name: ASD03930072
#	Creating user name:	WinNT
#	Creation time:	15. 06. 2019 20:47

#	Modifying user name:	WinNT
#	Modification time:	15. 06. 2019 20:47

#	Program:	/corina/corina34_cracker 3.40 0067  02.08.2006

@<TRIPOS>MOLECULE
ASD03930072
  27   29    0    0    0
SMALL
NO_CHARGES


@<TRIPOS>ATOM
   1 C1             0.0081     1.3758    -0.2518 C.ar    
   2 C2             0.0274    -0.0017    -0.2657 C.ar    
   3 C3             1.2132    -0.6864    -0.0348 C.ar    
   4 C4             2.3913     0.0197     0.2120 C.ar    
   5 C5             2.3780     1.4008     0.2266 C.ar    
   6 C6             1.1841     2.0885    -0.0052 C.ar    
   7 O7             1.4899    -2.0210     0.0045 O.3     
   8 C8             2.9197    -2.1224    -0.1299 C.3     
   9 O9             3.4035    -0.8761     0.4048 O.3     
  10 C10            1.1655     3.5644     0.0093 C.2     
  11 O11            0.1079     4.1598    -0.0631 O.2     
  12 N12            2.3209     4.2520     0.1027 N.am    
  13 C13            2.4983     5.7089     0.0227 C.3     
  14 C14            3.9695     5.9863     0.1843 C.2     
  15 C15            4.6219     4.8685     0.3427 C.2     
  16 C16            3.6683     3.7034     0.3124 C.3     
  17 H17           -0.9153     1.9047    -0.4360 H       
  18 H18           -0.8828    -0.5508    -0.4565 H       
  19 H19            3.2890     1.9484     0.4181 H       
  20 H20            3.3004    -2.9620     0.4517 H       
  21 H21            3.1996    -2.2235    -1.1785 H       
  22 H22            2.1566     6.0717    -0.9467 H       
  23 H23            1.9390     6.1952     0.8219 H       
  24 H24            4.4190     6.9682     0.1707 H       
  25 H25            5.6903     4.7899     0.4796 H       
  26 H26            3.7056     3.1620     1.2577 H       
  27 H27            3.9301     3.0376    -0.5100 H       
@<TRIPOS>BOND
   1    1    2 ar
   2    1    6 ar
   3    1   17 1
   4    2    3 ar
   5    2   18 1
   6    3    4 ar
   7    3    7 1
   8    4    5 ar
   9    4    9 1
  10    5    6 ar
  11    5   19 1
  12    6   10 1
  13    7    8 1
  14    8    9 1
  15    8   20 1
  16    8   21 1
  17   10   11 2
  18   10   12 am
  19   12   13 1
  20   12   16 1
  21   13   14 1
  22   13   22 1
  23   13   23 1
  24   14   15 2
  25   14   24 1
  26   15   16 1
  27   15   25 1
  28   16   26 1
  29   16   27 1

#	End of record

