#	Name: ASD03430594
#	Creating user name:	WinNT
#	Creation time:	15. 06. 2019 20:41

#	Modifying user name:	WinNT
#	Modification time:	15. 06. 2019 20:41

#	Program:	/corina/corina34_cracker 3.40 0067  02.08.2006

@<TRIPOS>MOLECULE
ASD03430594
  19   20    0    0    0
SMALL
NO_CHARGES


@<TRIPOS>ATOM
   1 O1            -0.0164     1.3584     0.0095 O.3     
   2 C2             0.0021    -0.0041     0.0020 C.ar    
   3 C3             1.1493    -0.6972    -0.3629 C.ar    
   4 O4             2.2827    -0.0314    -0.7164 O.3     
   5 C5             2.1362     1.3503    -1.0617 C.3     
   6 C6             1.2536     2.0194     0.0009 C.3     
   7 C7             1.1468    -2.0843    -0.3677 C.ar    
   8 C8             0.0020    -2.7781    -0.0072 C.ar    
   9 C9            -1.1422    -2.0857     0.3590 C.ar    
  10 C10           -1.1424    -0.7019     0.3639 C.ar    
  11 O11            0.0011    -4.1379    -0.0132 O.3     
  12 F12           -2.2577    -0.0289     0.7220 F       
  13 H13            3.1147     1.8300    -1.0818 H       
  14 H14            1.6636     1.4367    -2.0402 H       
  15 H15            1.1181     3.0729    -0.2437 H       
  16 H16            1.7231     1.9263     0.9802 H       
  17 H17            2.0375    -2.6243    -0.6530 H       
  18 H18           -2.0335    -2.6266     0.6408 H       
  19 H19            0.2683    -4.5350     0.8270 H       
@<TRIPOS>BOND
   1    1    2 1
   2    1    6 1
   3    2    3 ar
   4    2   10 ar
   5    3    4 1
   6    3    7 ar
   7    4    5 1
   8    5    6 1
   9    5   13 1
  10    5   14 1
  11    6   15 1
  12    6   16 1
  13    7    8 ar
  14    7   17 1
  15    8    9 ar
  16    8   11 1
  17    9   10 ar
  18    9   18 1
  19   10   12 1
  20   11   19 1

#	End of record

