#	Name: ASD00111036
#	Creating user name:	WinNT
#	Creation time:	15. 06. 2019 18:30

#	Modifying user name:	WinNT
#	Modification time:	15. 06. 2019 18:30

#	Program:	/corina/corina34_cracker 3.40 0067  02.08.2006

@<TRIPOS>MOLECULE
ASD00111036
  27   28    0    0    0
SMALL
NO_CHARGES


@<TRIPOS>ATOM
   1 C1            -0.0167     1.3802     0.0096 C.ar    
   2 C2             0.0021    -0.0041     0.0020 C.ar    
   3 C3            -1.1869    -0.7133     0.0084 C.ar    
   4 C4            -2.3893    -0.0315     0.0228 C.ar    
   5 C5            -2.4078     1.3421     0.0315 C.ar    
   6 C6            -1.2245     2.0567     0.0306 C.ar    
   7 C7            -3.6923    -0.8038     0.0277 C.3     
   8 C8            -4.3557    -0.6191     1.3962 C.3     
   9 N9            -5.1347     0.6079     1.4322 N.3     
  10 C10           -4.3887     1.8554     1.4138 C.3     
  11 C11           -3.7316     2.0782     0.0479 C.3     
  12 C12           -3.4932     3.5734    -0.1721 C.3     
  13 Cl13           1.5174    -0.8510    -0.0162 Cl      
  14 Cl14           1.4750     2.2682     0.0002 Cl      
  15 H15           -1.1750    -1.7933     0.0019 H       
  16 H16           -1.2421     3.1365     0.0372 H       
  17 H17           -4.3490    -0.4213    -0.7536 H       
  18 H18           -3.4930    -1.8615    -0.1442 H       
  19 H19           -5.0122    -1.4665     1.5936 H       
  20 H20           -3.5848    -0.5769     2.1656 H       
  21 H21           -5.8494     0.6034     0.7200 H       
  22 H22           -5.0674     2.6820     1.6242 H       
  23 H23           -3.6162     1.8225     2.1821 H       
  24 H24           -4.3782     1.6890    -0.7387 H       
  25 H25           -2.8381     3.9558     0.6106 H       
  26 H26           -3.0258     3.7276    -1.1447 H       
  27 H27           -4.4459     4.1020    -0.1390 H       
@<TRIPOS>BOND
   1    1    2 ar
   2    1   14 1
   3    1    6 ar
   4    2    3 ar
   5    2   13 1
   6    3    4 ar
   7    3   15 1
   8    4    5 ar
   9    4    7 1
  10    5    6 ar
  11    5   11 1
  12    6   16 1
  13    7    8 1
  14    7   17 1
  15    7   18 1
  16    8    9 1
  17    8   19 1
  18    8   20 1
  19    9   10 1
  20    9   21 1
  21   10   11 1
  22   10   22 1
  23   10   23 1
  24   11   12 1
  25   11   24 1
  26   12   25 1
  27   12   26 1
  28   12   27 1

#	End of record

