#	Name: ASD01812707
#	Creating user name:	WinNT
#	Creation time:	15. 06. 2019 19:29

#	Modifying user name:	WinNT
#	Modification time:	15. 06. 2019 19:29

#	Program:	/corina/corina34_cracker 3.40 0067  02.08.2006

@<TRIPOS>MOLECULE
ASD01812707
  57   61    0    0    0
SMALL
NO_CHARGES


@<TRIPOS>ATOM
   1 N1            -0.0158     1.3147     0.0093 N.ar    
   2 C2             0.0021    -0.0041     0.0020 C.ar    
   3 C3             1.1989    -0.7033    -0.0127 C.ar    
   4 C4             2.3829    -0.0013    -0.0202 C.ar    
   5 C5             2.3448     1.3978    -0.0128 C.ar    
   6 C6             1.0955     2.0332     0.0025 C.ar    
   7 C7             3.8373    -0.3889    -0.0363 C.3     
   8 N8             4.5955     0.8684    -0.0373 N.am    
   9 C9             3.7280     1.8961    -0.0237 C.2     
  10 C10            6.0558     0.9844    -0.0504 C.3     
  11 C11            6.5432     1.0311    -1.4757 C.ar    
  12 C12            6.4763     2.2162    -2.1897 C.ar    
  13 C13            6.9225     2.2630    -3.4977 C.ar    
  14 C14            7.4392     1.1163    -4.0952 C.ar    
  15 C15            7.5038    -0.0725    -3.3715 C.ar    
  16 C16            7.0611    -0.1080    -2.0647 C.ar    
  17 O17            1.0255     3.3856     0.0100 O.3     
  18 O18            4.0429     3.0706    -0.0212 O.2     
  19 C19            7.9195     1.1602    -5.4995 C.2     
  20 C20            7.2405     1.6682    -6.5683 C.2     
  21 C21            9.1614     0.6905    -5.9695 C.2     
  22 N22            9.2151     0.9041    -7.2575 N.2     
  23 N23            8.0236     1.5220    -7.6560 N.pl3   
  24 C24           10.2406     0.0535    -5.1325 C.3     
  25 C25            7.6838     1.9329    -9.0205 C.3     
  26 F26            5.9741     3.3272    -1.6079 F       
  27 C27           -0.2795     3.9677     0.0251 C.3     
  28 C28           -0.1576     5.4928     0.0317 C.3     
  29 O29            0.4061     5.9406    -1.2066 O.3     
  30 C30           -0.5326     6.7798    -1.8980 C.3     
  31 C31           -1.4572     7.3488    -0.7925 C.3     
  32 C32           -1.5578     6.1295     0.1641 C.3     
  33 H33           -0.9309    -0.5480     0.0080 H       
  34 H34            1.2023    -1.7833    -0.0178 H       
  35 H35            4.0797    -0.9721     0.8522 H       
  36 H36            4.0624    -0.9631    -0.9351 H       
  37 H37            6.3524     1.8979     0.4651 H       
  38 H38            6.4932     0.1235     0.4552 H       
  39 H39            6.8701     3.1868    -4.0546 H       
  40 H40            7.9035    -0.9643    -3.8312 H       
  41 H41            7.1155    -1.0283    -1.5021 H       
  42 H42            6.2541     2.1076    -6.5469 H       
  43 H43           10.0866    -1.0251    -5.1007 H       
  44 H44           11.2150     0.2686    -5.5710 H       
  45 H45           10.2007     0.4562    -4.1204 H       
  46 H46            8.0147     2.9585    -9.1842 H       
  47 H47            8.1794     1.2732    -9.7327 H       
  48 H48            6.6044     1.8728    -9.1599 H       
  49 H49           -0.8289     3.6509    -0.8614 H       
  50 H50           -0.8123     3.6419     0.9185 H       
  51 H51            0.4741     5.8096     0.8615 H       
  52 H52           -0.0114     7.5893    -2.4091 H       
  53 H53           -1.1118     6.1925    -2.6105 H       
  54 H54           -0.9957     8.2016    -0.2948 H       
  55 H55           -2.4347     7.6134    -1.1957 H       
  56 H56           -2.3315     5.4378    -0.1690 H       
  57 H57           -1.7409     6.4542     1.1884 H       
@<TRIPOS>BOND
   1    1    2 ar
   2    1    6 ar
   3    2    3 ar
   4    2   33 1
   5    3    4 ar
   6    3   34 1
   7    4    7 1
   8    4    5 ar
   9    5    6 ar
  10    5    9 1
  11    6   17 1
  12    7    8 1
  13    7   35 1
  14    7   36 1
  15    8    9 am
  16    8   10 1
  17    9   18 2
  18   10   11 1
  19   10   37 1
  20   10   38 1
  21   11   12 ar
  22   11   16 ar
  23   12   13 ar
  24   12   26 1
  25   13   14 ar
  26   13   39 1
  27   14   15 ar
  28   14   19 1
  29   15   16 ar
  30   15   40 1
  31   16   41 1
  32   17   27 1
  33   19   21 1
  34   19   20 2
  35   20   23 1
  36   20   42 1
  37   21   22 2
  38   21   24 1
  39   22   23 1
  40   23   25 1
  41   24   43 1
  42   24   44 1
  43   24   45 1
  44   25   46 1
  45   25   47 1
  46   25   48 1
  47   27   28 1
  48   27   49 1
  49   27   50 1
  50   28   29 1
  51   28   32 1
  52   28   51 1
  53   29   30 1
  54   30   31 1
  55   30   52 1
  56   30   53 1
  57   31   32 1
  58   31   54 1
  59   31   55 1
  60   32   56 1
  61   32   57 1

#	End of record

