#	Name: ASD06710069
#	Creating user name:	WinNT
#	Creation time:	15. 06. 2019 21:08

#	Modifying user name:	WinNT
#	Modification time:	15. 06. 2019 21:08

#	Program:	/corina/corina34_cracker 3.40 0067  02.08.2006

@<TRIPOS>MOLECULE
ASD06710069
  32   33    0    0    0
SMALL
NO_CHARGES


@<TRIPOS>ATOM
   1 Cl1            0.0021    -0.0041     0.0020 Cl      
   2 Cl2           -2.7611     4.6387     0.0541 Cl      
   3 C3            -0.0215     1.7317     0.0116 C.ar    
   4 C4             1.1669     2.4398     0.0040 C.ar    
   5 C5             1.1484     3.8221     0.0117 C.ar    
   6 C6            -0.0573     4.4974     0.0269 C.ar    
   7 C7            -1.2467     3.7902     0.0344 C.ar    
   8 C8            -1.2288     2.4073     0.0210 C.ar    
   9 C9             2.4821     1.7041    -0.0120 C.3     
  10 S10            2.9937     1.4177    -1.7286 S.3     
  11 C11            4.5686     0.5367    -1.5434 C.3     
  12 C12            5.1313     0.2218    -2.9055 C.ar    
  13 C13            5.9717     1.1212    -3.5276 C.ar    
  14 C14            6.4922     0.8277    -4.7898 C.ar    
  15 C15            6.1573    -0.3757    -5.4133 C.ar    
  16 C16            5.3155    -1.2663    -4.7797 C.ar    
  17 C17            4.8080    -0.9718    -3.5269 C.ar    
  18 C18            7.3925     1.7865    -5.4623 C.2     
  19 O19            7.6818     2.8329    -4.9175 O.2     
  20 O20            7.8929     1.5003    -6.6799 O.3     
  21 H21            2.0764     4.3744     0.0061 H       
  22 H22           -0.0712     5.5773     0.0332 H       
  23 H23           -2.1569     1.8550     0.0220 H       
  24 H24            3.2385     2.3009     0.4978 H       
  25 H25            2.3695     0.7475     0.4980 H       
  26 H26            5.2728     1.1627    -0.9953 H       
  27 H27            4.4038    -0.3907    -0.9950 H       
  28 H28            6.2264     2.0505    -3.0398 H       
  29 H29            6.5561    -0.6086    -6.3896 H       
  30 H30            5.0554    -2.1975    -5.2611 H       
  31 H31            4.1530    -1.6745    -3.0334 H       
  32 H32            8.4776     2.1584    -7.0800 H       
@<TRIPOS>BOND
   1    1    3 1
   2    2    7 1
   3    3    4 ar
   4    3    8 ar
   5    4    5 ar
   6    4    9 1
   7    5    6 ar
   8    5   21 1
   9    6    7 ar
  10    6   22 1
  11    7    8 ar
  12    8   23 1
  13    9   10 1
  14    9   24 1
  15    9   25 1
  16   10   11 1
  17   11   12 1
  18   11   26 1
  19   11   27 1
  20   12   13 ar
  21   12   17 ar
  22   13   14 ar
  23   13   28 1
  24   14   15 ar
  25   14   18 1
  26   15   16 ar
  27   15   29 1
  28   16   17 ar
  29   16   30 1
  30   17   31 1
  31   18   19 2
  32   18   20 1
  33   20   32 1

#	End of record

