#	Name: ASD01230611
#	Creating user name:	WinNT
#	Creation time:	15. 06. 2019 19:14

#	Modifying user name:	WinNT
#	Modification time:	15. 06. 2019 19:14

#	Program:	/corina/corina34_cracker 3.40 0067  02.08.2006

@<TRIPOS>MOLECULE
ASD01230611
  34   37    0    0    0
SMALL
NO_CHARGES


@<TRIPOS>ATOM
   1 S1            -0.0204     1.6504     0.0111 S.o2    
   2 N2             0.0021    -0.0041     0.0020 N.am    
   3 C3             1.0231    -0.6874    -0.4557 C.2     
   4 N4             2.1689    -0.1518    -0.9712 N.pl3   
   5 C5             2.3934     1.2854    -1.1473 C.3     
   6 C6             1.7501     2.0749    -0.0035 C.3     
   7 C7             0.8952    -2.1589    -0.3951 C.2     
   8 C8             1.9453    -2.9417    -0.8226 C.2     
   9 C9             3.1045    -2.3189    -1.3055 C.2     
  10 C10            3.1912    -0.9790    -1.3650 C.2     
  11 N11           -3.6699    -4.6200     1.7506 N.pl3   
  12 C12           -3.1287    -5.2099     2.8601 C.2     
  13 C13           -1.8147    -4.9438     2.9255 C.2     
  14 C14           -1.4873    -4.1154     1.7621 C.ar    
  15 C15           -0.3121    -3.5320     1.2889 C.ar    
  16 C16           -0.3453    -2.7836     0.1188 C.ar    
  17 C17           -1.5505    -2.6188    -0.5748 C.ar    
  18 C18           -2.7023    -3.1874    -0.1142 C.ar    
  19 C19           -2.6923    -3.9419     1.0560 C.ar    
  20 O20           -0.6346     2.0065    -1.2198 O.2     
  21 O21           -0.6110     1.9932     1.2573 O.2     
  22 H22            3.4654     1.4826    -1.1618 H       
  23 H23            1.9571     1.6041    -2.0939 H       
  24 H24            1.8743     3.1442    -0.1744 H       
  25 H25            2.2074     1.7939     0.9452 H       
  26 H26            1.8765    -4.0189    -0.7858 H       
  27 H27            3.9376    -2.9227    -1.6337 H       
  28 H28            4.1023    -0.5350    -1.7381 H       
  29 H29           -4.6025    -4.6746     1.4895 H       
  30 H30           -3.6777    -5.8018     3.5775 H       
  31 H31           -1.1290    -5.2771     3.6904 H       
  32 H32            0.6151    -3.6600     1.8277 H       
  33 H33           -1.5687    -2.0354    -1.4834 H       
  34 H34           -3.6248    -3.0514    -0.6590 H       
@<TRIPOS>BOND
   1    1    2 am
   2    1    6 1
   3    1   20 2
   4    1   21 2
   5    2    3 2
   6    3    4 1
   7    3    7 1
   8    4    5 1
   9    4   10 1
  10    5    6 1
  11    5   22 1
  12    5   23 1
  13    6   24 1
  14    6   25 1
  15    7    8 2
  16    7   16 1
  17    8    9 1
  18    8   26 1
  19    9   10 2
  20    9   27 1
  21   10   28 1
  22   11   12 1
  23   11   19 1
  24   11   29 1
  25   12   13 2
  26   12   30 1
  27   13   14 1
  28   13   31 1
  29   14   15 ar
  30   14   19 ar
  31   15   16 ar
  32   15   32 1
  33   16   17 ar
  34   17   18 ar
  35   17   33 1
  36   18   19 ar
  37   18   34 1

#	End of record

