#	Name: ASD03730859
#	Creating user name:	WinNT
#	Creation time:	15. 06. 2019 20:44

#	Modifying user name:	WinNT
#	Modification time:	15. 06. 2019 20:44

#	Program:	/corina/corina34_cracker 3.40 0067  02.08.2006

@<TRIPOS>MOLECULE
ASD03730859
  61   67    0    0    0
SMALL
NO_CHARGES


@<TRIPOS>ATOM
   1 C1             1.4567    -1.0918    -2.5954 C.2     
   2 C2             0.7208    -1.2570    -1.3242 C.ar    
   3 C3             1.2678    -0.7822    -0.1307 C.ar    
   4 C4             0.5759    -0.9396     1.0521 C.ar    
   5 C5            -0.6576    -1.5669     1.0575 C.ar    
   6 C6            -1.2053    -2.0397    -0.1216 C.ar    
   7 C7            -0.5265    -1.8832    -1.3126 C.ar    
   8 O8             2.4925    -0.4563    -2.6199 O.2     
   9 N9             0.9820    -1.6506    -3.7263 N.am    
  10 C10            2.6114    -0.0997    -0.1345 C.3     
  11 O11            0.8523    -2.3634     6.4588 O.3     
  12 C12            0.9323    -2.3003     7.8950 C.3     
  13 O13            2.3184    -2.0042     8.1479 O.3     
  14 C14            2.7576    -1.3358     7.0410 C.ar    
  15 C15            1.8562    -1.5579     6.0025 C.ar    
  16 C16            3.8713    -0.5422     6.8325 C.ar    
  17 C17            4.1010     0.0375     5.5884 C.ar    
  18 C18            3.1978    -0.1984     4.5564 C.ar    
  19 C19            2.0833    -0.9842     4.7628 C.ar    
  20 O20            5.1136     0.8556     5.1814 O.3     
  21 C21            3.7269     0.5285     3.3490 C.3     
  22 C22            5.1735     0.8574     3.7420 C.3     
  23 N23            2.9206     0.3777     1.2156 N.am    
  24 C24            3.6615    -0.3116     2.1061 C.2     
  25 C25            2.9373     1.7648     3.0355 C.ar    
  26 C26            2.6270     2.9016     3.7479 C.ar    
  27 C27            1.8580     3.8946     3.1678 C.ar    
  28 C28            1.4013     3.7423     1.8712 C.ar    
  29 C29            1.7086     2.6051     1.1539 C.ar    
  30 C30            2.4826     1.6005     1.7297 C.ar    
  31 O31            4.1749    -1.3972     1.9366 O.2     
  32 C32            1.6207    -1.4137    -4.9416 C.ar    
  33 C33            1.0643    -1.9018    -6.1189 C.ar    
  34 C34            1.7087    -1.6590    -7.3188 C.ar    
  35 C35            2.8924    -0.9334    -7.3001 C.ar    
  36 C36            3.3877    -0.4790    -6.0941 C.ar    
  37 N37            2.7487    -0.7216    -4.9656 N.ar    
  38 C38           -0.2228    -2.6850    -6.0881 C.3     
  39 H39            0.9979    -0.5728     1.9761 H       
  40 H40           -1.1949    -1.6882     1.9865 H       
  41 H41           -2.1683    -2.5283    -0.1105 H       
  42 H42           -0.9572    -2.2487    -2.2331 H       
  43 H43            0.1957    -2.2176    -3.6941 H       
  44 H44            3.3771    -0.8065    -0.4542 H       
  45 H45            2.5876     0.7457    -0.8222 H       
  46 H46            0.2944    -1.5045     8.2795 H       
  47 H47            0.6587    -3.2587     8.3362 H       
  48 H48            4.5671    -0.3712     7.6406 H       
  49 H49            1.3861    -1.1529     3.9554 H       
  50 H50            5.4626     1.8395     3.3678 H       
  51 H51            5.8568     0.0882     3.3820 H       
  52 H52            2.9845     3.0182     4.7603 H       
  53 H53            1.6151     4.7867     3.7259 H       
  54 H54            0.8008     4.5175     1.4184 H       
  55 H55            1.3479     2.4932     0.1420 H       
  56 H56            1.3006    -2.0258    -8.2490 H       
  57 H57            3.4203    -0.7268    -8.2194 H       
  58 H58            4.3083     0.0855    -6.0746 H       
  59 H59           -1.0662    -2.0020    -6.1901 H       
  60 H60           -0.2328    -3.4001    -6.9107 H       
  61 H61           -0.3004    -3.2193    -5.1412 H       
@<TRIPOS>BOND
   1    1    2 1
   2    1    8 2
   3    1    9 am
   4    2    3 ar
   5    2    7 ar
   6    3    4 ar
   7    3   10 1
   8    4    5 ar
   9    4   39 1
  10    5    6 ar
  11    5   40 1
  12    6    7 ar
  13    6   41 1
  14    7   42 1
  15    9   32 1
  16    9   43 1
  17   10   23 1
  18   10   44 1
  19   10   45 1
  20   11   12 1
  21   11   15 1
  22   12   13 1
  23   12   46 1
  24   12   47 1
  25   13   14 1
  26   14   15 ar
  27   14   16 ar
  28   15   19 ar
  29   16   17 ar
  30   16   48 1
  31   17   18 ar
  32   17   20 1
  33   18   19 ar
  34   18   21 1
  35   19   49 1
  36   20   22 1
  37   21   22 1
  38   21   24 1
  39   21   25 1
  40   22   50 1
  41   22   51 1
  42   23   24 am
  43   23   30 1
  44   24   31 2
  45   25   26 ar
  46   25   30 ar
  47   26   27 ar
  48   26   52 1
  49   27   28 ar
  50   27   53 1
  51   28   29 ar
  52   28   54 1
  53   29   30 ar
  54   29   55 1
  55   32   33 ar
  56   32   37 ar
  57   33   34 ar
  58   33   38 1
  59   34   35 ar
  60   34   56 1
  61   35   36 ar
  62   35   57 1
  63   36   37 ar
  64   36   58 1
  65   38   59 1
  66   38   60 1
  67   38   61 1

#	End of record

