#	Name: ASD04590508
#	Creating user name:	WinNT
#	Creation time:	15. 06. 2019 20:50

#	Modifying user name:	WinNT
#	Modification time:	15. 06. 2019 20:50

#	Program:	/corina/corina34_cracker 3.40 0067  02.08.2006

@<TRIPOS>MOLECULE
ASD04590508
  57   61    0    0    0
SMALL
NO_CHARGES


@<TRIPOS>ATOM
   1 C1            -0.0167     1.3832     0.0096 C.ar    
   2 C2             0.0021    -0.0041     0.0020 C.ar    
   3 C3             2.4020     0.0223    -0.0208 C.ar    
   4 C4             2.3769     1.4283    -0.0130 C.ar    
   5 C5             1.1624     2.0986     0.0022 C.ar    
   6 N6             3.7040    -0.3552    -0.0353 N.2     
   7 C7             4.4709     0.7083    -0.0369 C.2     
   8 N8             3.6969     1.8375    -0.0234 N.pl3   
   9 C9             5.9482     0.6906    -0.0516 C.2     
  10 C10            6.7655    -0.4630    -0.0667 C.2     
  11 C11            8.0574    -0.0542    -0.0777 C.2     
  12 N12            8.0646     1.3049    -0.0701 N.pl3   
  13 N13            6.7361     1.7481    -0.0588 N.2     
  14 N14            6.3180    -1.7954    -0.0692 N.am    
  15 C15            7.2099    -2.8057    -0.0842 C.2     
  16 O16            8.4017    -2.5646    -0.0956 O.2     
  17 C17            1.1969    -0.6870    -0.0131 C.ar    
  18 N18            6.7808    -4.0834    -0.0866 N.am    
  19 C19            7.7502    -5.1816    -0.1030 C.3     
  20 C20           -1.2962    -0.7693     0.0109 C.3     
  21 N21           -1.7318    -1.0105    -1.3712 N.3     
  22 C22           -2.8604    -1.9518    -1.4111 C.3     
  23 C23           -0.6176    -1.4976    -2.1974 C.3     
  24 C24           -1.0996    -1.6784    -3.6392 C.3     
  25 O25           -2.2162    -2.5719    -3.6548 O.3     
  26 C26           -3.3198    -2.1280    -2.8609 C.3     
  27 C27            6.6686    -7.0959    -1.2991 C.ar    
  28 C28            7.0175    -6.4985    -0.1023 C.ar    
  29 C29            5.9966    -8.3039    -1.2985 C.ar    
  30 C30            5.6733    -8.9144    -0.1012 C.ar    
  31 C31            6.0225    -8.3172     1.0956 C.ar    
  32 C32            6.6946    -7.1092     1.0950 C.ar    
  33 H33           -0.9614     1.9066     0.0170 H       
  34 H34            1.1403     3.1784     0.0079 H       
  35 H35            4.0156     2.7537    -0.0220 H       
  36 H36            8.9270    -0.6947    -0.0899 H       
  37 H37            8.8530     1.8699    -0.0750 H       
  38 H38            5.3673    -1.9877    -0.0601 H       
  39 H39            1.2037    -1.7669    -0.0186 H       
  40 H40            5.8301    -4.2757    -0.0775 H       
  41 H41            8.3663    -5.1091    -0.9992 H       
  42 H42            8.3854    -5.1188     0.7806 H       
  43 H43           -1.1522    -1.7232     0.5182 H       
  44 H44           -2.0559    -0.1898     0.5354 H       
  45 H45           -2.5454    -2.9149    -1.0095 H       
  46 H46           -3.6832    -1.5591    -0.8137 H       
  47 H47            0.1967    -0.7734    -2.1739 H       
  48 H48           -0.2668    -2.4535    -1.8083 H       
  49 H49           -1.4002    -0.7130    -4.0462 H       
  50 H50           -0.2928    -2.0935    -4.2433 H       
  51 H51           -4.1188    -2.8683    -2.9020 H       
  52 H52           -3.6850    -1.1757    -3.2453 H       
  53 H53            6.9173    -6.6168    -2.2345 H       
  54 H54            5.7237    -8.7705    -2.2336 H       
  55 H55            5.1476    -9.8578    -0.1007 H       
  56 H56            5.7699    -8.7942     2.0310 H       
  57 H57            6.9672    -6.6425     2.0300 H       
@<TRIPOS>BOND
   1    1    2 ar
   2    1    5 ar
   3    1   33 1
   4    2   17 ar
   5    2   20 1
   6    3    4 ar
   7    3    6 1
   8    3   17 ar
   9    4    5 ar
  10    4    8 1
  11    5   34 1
  12    6    7 2
  13    7    8 1
  14    7    9 1
  15    8   35 1
  16    9   10 1
  17    9   13 2
  18   10   11 2
  19   10   14 1
  20   11   12 1
  21   11   36 1
  22   12   13 1
  23   12   37 1
  24   14   15 am
  25   14   38 1
  26   15   16 2
  27   15   18 am
  28   17   39 1
  29   18   19 1
  30   18   40 1
  31   19   28 1
  32   19   41 1
  33   19   42 1
  34   20   21 1
  35   20   43 1
  36   20   44 1
  37   21   22 1
  38   21   23 1
  39   22   26 1
  40   22   45 1
  41   22   46 1
  42   23   24 1
  43   23   47 1
  44   23   48 1
  45   24   25 1
  46   24   49 1
  47   24   50 1
  48   25   26 1
  49   26   51 1
  50   26   52 1
  51   27   28 ar
  52   27   29 ar
  53   27   53 1
  54   28   32 ar
  55   29   30 ar
  56   29   54 1
  57   30   31 ar
  58   30   55 1
  59   31   32 ar
  60   31   56 1
  61   32   57 1

#	End of record

