#	Name: ASD01708052
#	Creating user name:	WinNT
#	Creation time:	15. 06. 2019 19:22

#	Modifying user name:	WinNT
#	Modification time:	15. 06. 2019 19:22

#	Program:	/corina/corina34_cracker 3.40 0067  02.08.2006

@<TRIPOS>MOLECULE
ASD01708052
  62   65    0    0    0
SMALL
NO_CHARGES


@<TRIPOS>ATOM
   1 C1            -0.0162     1.3436     0.0094 C.2     
   2 N2            -0.0047    -0.0041     0.0033 N.am    
   3 O3             1.0313     1.9602     0.0196 O.2     
   4 C4            -1.2448    -0.7783     0.1211 C.3     
   5 C5            -1.0456    -1.9125     1.0959 C.ar    
   6 C6             0.1996    -2.2662     1.5690 C.ar    
   7 C7            -2.1736    -2.6086     1.5139 C.ar    
   8 C8            -2.0653    -3.6607     2.3970 C.ar    
   9 C9            -0.8056    -4.0314     2.8759 C.ar    
  10 C10            0.3221    -3.3276     2.4559 C.ar    
  11 Cl11           1.8906    -3.7819     3.0451 Cl      
  12 Cl12          -3.4835    -4.5194     2.9117 Cl      
  13 C13           -0.6704    -5.1594     3.8197 C.2     
  14 N14           -0.7332    -4.9381     5.1477 N.am    
  15 O15           -0.5023    -6.2874     3.3987 O.2     
  16 C16           -0.5991    -6.0570     6.0839 C.3     
  17 C17           -1.9413    -6.7148     6.2760 C.2     
  18 O18           -2.9104    -6.2925     5.6910 O.2     
  19 O19           -2.0601    -7.7701     7.0971 O.3     
  20 C20           -1.3022     2.0716    -0.0024 C.ar    
  21 C21           -0.0884    -5.5377     7.4294 C.3     
  22 C22           -1.4315     3.2770     0.6901 C.ar    
  23 N23            1.1574    -4.7945     7.2250 N.am    
  24 C24            1.2333    -3.4764     6.9789 C.2     
  25 C25            1.4603    -1.5439     1.1717 C.3     
  26 C26            1.2526    -0.7589    -0.1283 C.3     
  27 C27           -2.6340     3.9518     0.6755 C.ar    
  28 C28           -3.7123     3.4360    -0.0244 C.ar    
  29 C29           -3.5900     2.2406    -0.7134 C.ar    
  30 C30           -2.3909     1.5597    -0.7108 C.ar    
  31 Cl31          -5.2231     4.2909    -0.0378 Cl      
  32 C32            2.4964    -5.3806     7.2659 C.3     
  33 N33            3.4694    -4.3106     7.0141 N.am    
  34 C34            2.6812    -3.0840     6.8278 C.3     
  35 O35            0.2877    -2.7220     6.8917 O.2     
  36 S36            5.1180    -4.4552     6.9559 S.o2    
  37 O37            5.5956    -3.1631     7.3046 O.2     
  38 O38            5.3998    -5.5848     7.7706 O.2     
  39 C39            5.4794    -4.8192     5.2159 C.3     
  40 H40           -2.0448    -0.1297     0.4781 H       
  41 H41           -1.5145    -1.1820    -0.8548 H       
  42 H42           -3.1462    -2.3213     1.1426 H       
  43 H43           -0.8673    -4.0381     5.4836 H       
  44 H44            0.1076    -6.7835     5.6829 H       
  45 H45           -2.9409    -8.1584     7.1882 H       
  46 H46           -0.8358    -4.8793     7.8721 H       
  47 H47            0.0959    -6.3791     8.0973 H       
  48 H48           -0.5916     3.6799     1.2365 H       
  49 H49            1.7445    -0.8549     1.9672 H       
  50 H50            2.2592    -2.2710     1.0260 H       
  51 H51            1.1882    -1.4490    -0.9696 H       
  52 H52            2.0827    -0.0688    -0.2791 H       
  53 H53           -2.7354     4.8841     1.2111 H       
  54 H54           -4.4343     1.8431    -1.2571 H       
  55 H55           -2.2967     0.6279    -1.2486 H       
  56 H56            2.6768    -5.8191     8.2474 H       
  57 H57            2.5861    -6.1484     6.4974 H       
  58 H58            2.8556    -2.6755     5.8324 H       
  59 H59            2.9499    -2.3486     7.5862 H       
  60 H60            5.1203    -4.0011     4.5914 H       
  61 H61            6.5555    -4.9316     5.0841 H       
  62 H62            4.9794    -5.7435     4.9267 H       
@<TRIPOS>BOND
   1    1    2 am
   2    1    3 2
   3    1   20 1
   4    2    4 1
   5    2   26 1
   6    4    5 1
   7    4   40 1
   8    4   41 1
   9    5    6 ar
  10    5    7 ar
  11    6   25 1
  12    6   10 ar
  13    7    8 ar
  14    7   42 1
  15    8    9 ar
  16    8   12 1
  17    9   10 ar
  18    9   13 1
  19   10   11 1
  20   13   14 am
  21   13   15 2
  22   14   16 1
  23   14   43 1
  24   16   17 1
  25   16   21 1
  26   16   44 1
  27   17   18 2
  28   17   19 1
  29   19   45 1
  30   20   22 ar
  31   20   30 ar
  32   21   23 1
  33   21   46 1
  34   21   47 1
  35   22   27 ar
  36   22   48 1
  37   23   24 am
  38   23   32 1
  39   24   35 2
  40   24   34 1
  41   25   26 1
  42   25   49 1
  43   25   50 1
  44   26   51 1
  45   26   52 1
  46   27   28 ar
  47   27   53 1
  48   28   29 ar
  49   28   31 1
  50   29   30 ar
  51   29   54 1
  52   30   55 1
  53   32   33 1
  54   32   56 1
  55   32   57 1
  56   33   34 1
  57   33   36 am
  58   34   58 1
  59   34   59 1
  60   36   37 2
  61   36   38 2
  62   36   39 1
  63   39   60 1
  64   39   61 1
  65   39   62 1

#	End of record

