#	Name: ASD08830239
#	Creating user name:	WinNT
#	Creation time:	15. 06. 2019 21:20

#	Modifying user name:	WinNT
#	Modification time:	15. 06. 2019 21:20

#	Program:	/corina/corina34_cracker 3.40 0067  02.08.2006

@<TRIPOS>MOLECULE
ASD08830239
  57   60    0    0    0
SMALL
NO_CHARGES


@<TRIPOS>ATOM
   1 C1             0.3213     0.3236     1.9817 C.ar    
   2 C2            -0.0417    -1.1012     2.0135 C.2     
   3 C3            -1.3647    -1.5544     1.4519 C.3     
   4 O4             0.7236    -1.9114     2.4916 O.2     
   5 C5            -0.5739     1.2616     1.4303 C.ar    
   6 C6             1.5411     0.7359     2.5002 C.ar    
   7 C7             1.8795     2.0964     2.4665 C.ar    
   8 C8             0.9709     3.0291     1.9036 C.ar    
   9 C9            -0.2610     2.5807     1.3906 C.ar    
  10 C10            3.1057     2.5532     2.9823 C.ar    
  11 C11            3.4039     3.8806     2.9348 C.ar    
  12 C12            2.5110     4.7961     2.3822 C.ar    
  13 C13            1.3149     4.3901     1.8729 C.ar    
  14 C14           -1.4924    -3.0711     1.6082 C.3     
  15 N15           -2.7820    -3.5129     1.0608 N.3     
  16 C16           -2.8435    -4.9781     0.9754 C.3     
  17 C17           -4.2598    -5.4041     0.5742 C.3     
  18 N18           -4.6297    -4.6932    -0.6591 N.am    
  19 C19           -4.4645    -3.2321    -0.6964 C.3     
  20 C20           -3.0402    -2.8917    -0.2452 C.3     
  21 C21           -5.1078    -5.3627    -1.7266 C.2     
  22 O22           -5.7788    -4.7820    -2.5578 O.2     
  23 N23           -4.8422    -6.6759    -1.8727 N.am    
  24 C24           -3.6781    -7.2822    -1.2124 C.3     
  25 C25           -4.1491    -8.4863    -0.3906 C.3     
  26 C26           -4.9275    -9.4437    -1.2959 C.3     
  27 C27           -6.1596    -8.7298    -1.8567 C.3     
  28 C28           -5.7146    -7.5297    -2.6905 C.3     
  29 H29           -2.1753    -1.0641     1.9909 H       
  30 H30           -1.4199    -1.2921     0.3954 H       
  31 H31           -1.5209     0.9260     1.0342 H       
  32 H32            2.2235     0.0153     2.9263 H       
  33 H33           -0.9557     3.2872     0.9608 H       
  34 H34            3.8069     1.8545     3.4142 H       
  35 H35            4.3461     4.2289     3.3315 H       
  36 H36            2.7715     5.8439     2.3570 H       
  37 H37            0.6334     5.1121     1.4479 H       
  38 H38           -0.6818    -3.5614     1.0692 H       
  39 H39           -1.4371    -3.3334     2.6647 H       
  40 H40           -2.1325    -5.3290     0.2274 H       
  41 H41           -2.5948    -5.4097     1.9449 H       
  42 H42           -4.2825    -6.4794     0.3978 H       
  43 H43           -4.9590    -5.1457     1.3695 H       
  44 H44           -4.6226    -2.8716    -1.7128 H       
  45 H45           -5.1833    -2.7651    -0.0232 H       
  46 H46           -2.9341    -1.8101    -0.1608 H       
  47 H47           -2.3264    -3.2716    -0.9761 H       
  48 H48           -2.9614    -7.6112    -1.9648 H       
  49 H49           -3.2098    -6.5509    -0.5536 H       
  50 H50           -3.2846    -9.0024     0.0269 H       
  51 H51           -4.7949    -8.1445     0.4182 H       
  52 H52           -4.2888    -9.7657    -2.1184 H       
  53 H53           -5.2427   -10.3132    -0.7192 H       
  54 H54           -6.7261    -9.4193    -2.4826 H       
  55 H55           -6.7865    -8.3858    -1.0340 H       
  56 H56           -6.5888    -6.9620    -3.0093 H       
  57 H57           -5.1628    -7.8763    -3.5642 H       
@<TRIPOS>BOND
   1    1    2 1
   2    1    6 ar
   3    1    5 ar
   4    2    3 1
   5    2    4 2
   6    3   14 1
   7    3   29 1
   8    3   30 1
   9    5    9 ar
  10    5   31 1
  11    6    7 ar
  12    6   32 1
  13    7    8 ar
  14    7   10 ar
  15    8    9 ar
  16    8   13 ar
  17    9   33 1
  18   10   11 ar
  19   10   34 1
  20   11   12 ar
  21   11   35 1
  22   12   13 ar
  23   12   36 1
  24   13   37 1
  25   14   15 1
  26   14   38 1
  27   14   39 1
  28   15   16 1
  29   15   20 1
  30   16   17 1
  31   16   40 1
  32   16   41 1
  33   17   18 1
  34   17   42 1
  35   17   43 1
  36   18   19 1
  37   18   21 am
  38   19   20 1
  39   19   44 1
  40   19   45 1
  41   20   46 1
  42   20   47 1
  43   21   22 2
  44   21   23 am
  45   23   24 1
  46   23   28 1
  47   24   25 1
  48   24   48 1
  49   24   49 1
  50   25   26 1
  51   25   50 1
  52   25   51 1
  53   26   27 1
  54   26   52 1
  55   26   53 1
  56   27   28 1
  57   27   54 1
  58   27   55 1
  59   28   56 1
  60   28   57 1

#	End of record

