#	Name: ASD01913825
#	Creating user name:	WinNT
#	Creation time:	15. 06. 2019 20:02

#	Modifying user name:	WinNT
#	Modification time:	15. 06. 2019 20:02

#	Program:	/corina/corina34_cracker 3.40 0067  02.08.2006

@<TRIPOS>MOLECULE
ASD01913825
  41   43    0    0    0
SMALL
NO_CHARGES


@<TRIPOS>ATOM
   1 C1            -0.0226     1.4278    -0.0312 C.ar    
   2 C2            -0.0016    -0.0041    -0.0269 C.1     
   3 C3             0.0156    -1.1780    -0.0233 C.1     
   4 C4             0.0366    -2.6098    -0.0189 C.ar    
   5 C5            -1.1338    -3.3383     0.2416 C.ar    
   6 C6             0.1560    -5.3344    -0.0290 C.ar    
   7 N7             1.2428    -4.6189    -0.2767 N.ar    
   8 C8             1.2210    -3.3022    -0.2797 C.ar    
   9 C9            -1.0631    -4.7169     0.2343 C.ar    
  10 N10            0.2331    -6.7250    -0.0380 N.am    
  11 C11           -0.8140    -7.5604    -0.0328 C.2     
  12 N12           -0.4748    -8.8562    -0.0438 N.am    
  13 C13            0.9911    -8.9718    -0.0586 C.3     
  14 C14            1.4768    -7.5093    -0.0610 C.3     
  15 O15           -1.9677    -7.1772    -0.0191 O.2     
  16 C16           -1.4149    -9.9797    -0.0413 C.3     
  17 C17            1.4847    -9.7050     1.1903 C.3     
  18 C18            1.4604    -9.6901    -1.3254 C.3     
  19 C19            1.1421     2.1547    -0.2905 C.ar    
  20 N20            1.1226     3.4713    -0.2949 N.ar    
  21 C21            0.0185     4.1531    -0.0581 C.ar    
  22 C22           -1.1776     3.5077     0.2080 C.ar    
  23 C23           -1.2129     2.1239     0.2188 C.ar    
  24 Cl24          -2.6190     4.4244     0.5175 Cl      
  25 H25           -2.0667    -2.8331     0.4433 H       
  26 H26            2.1276    -2.7527    -0.4861 H       
  27 H27           -1.9441    -5.3098     0.4310 H       
  28 H28            2.0520    -7.2986    -0.9626 H       
  29 H29            2.0699    -7.3016     0.8296 H       
  30 H30           -2.4362    -9.5990    -0.0297 H       
  31 H31           -1.2623   -10.5831    -0.9362 H       
  32 H32           -1.2457   -10.5931     0.8437 H       
  33 H33            1.0719   -10.7137     1.2063 H       
  34 H34            2.5733    -9.7580     1.1741 H       
  35 H35            1.1604    -9.1655     2.0802 H       
  36 H36            1.1191    -9.1402    -2.2024 H       
  37 H37            2.5491    -9.7432    -1.3308 H       
  38 H38            1.0473   -10.6986    -1.3454 H       
  39 H39            2.0663     1.6322    -0.4886 H       
  40 H40            0.0478     5.2326    -0.0717 H       
  41 H41           -2.1318     1.5946     0.4233 H       
@<TRIPOS>BOND
   1    1    2 1
   2    1   19 ar
   3    1   23 ar
   4    2    3 3
   5    3    4 1
   6    4    5 ar
   7    4    8 ar
   8    5    9 ar
   9    5   25 1
  10    6    7 ar
  11    6   10 1
  12    6    9 ar
  13    7    8 ar
  14    8   26 1
  15    9   27 1
  16   10   11 am
  17   10   14 1
  18   11   12 am
  19   11   15 2
  20   12   13 1
  21   12   16 1
  22   13   14 1
  23   13   17 1
  24   13   18 1
  25   14   28 1
  26   14   29 1
  27   16   30 1
  28   16   31 1
  29   16   32 1
  30   17   33 1
  31   17   34 1
  32   17   35 1
  33   18   36 1
  34   18   37 1
  35   18   38 1
  36   19   20 ar
  37   19   39 1
  38   20   21 ar
  39   21   22 ar
  40   21   40 1
  41   22   23 ar
  42   22   24 1
  43   23   41 1

#	End of record

