#	Name: ASD03090287
#	Creating user name:	WinNT
#	Creation time:	15. 06. 2019 20:28

#	Modifying user name:	WinNT
#	Modification time:	15. 06. 2019 20:28

#	Program:	/corina/corina34_cracker 3.40 0067  02.08.2006

@<TRIPOS>MOLECULE
ASD03090287
  61   64    0    0    0
SMALL
NO_CHARGES


@<TRIPOS>ATOM
   1 C1             0.2470     1.1088     0.6772 C.ar    
   2 C2            -0.0369     0.0164     1.4947 C.ar    
   3 C3            -1.2605    -0.6186     1.3990 C.ar    
   4 C4            -2.2104    -0.1631     0.4820 C.ar    
   5 C5            -1.9197     0.9316    -0.3338 C.ar    
   6 C6            -0.6985     1.5643    -0.2297 C.ar    
   7 C7            -3.5201    -0.8389     0.3753 C.2     
   8 N8            -5.6210    -3.6550     0.3313 N.pl3   
   9 C9            -6.9849    -3.8006     0.0639 C.ar    
  10 C10           -7.6203    -2.9263    -0.8083 C.ar    
  11 C11           -8.9692    -3.0737    -1.0709 C.ar    
  12 C12           -9.6860    -4.0905    -0.4654 C.ar    
  13 C13           -9.0557    -4.9621     0.4038 C.ar    
  14 C14           -7.7069    -4.8240     0.6656 C.ar    
  15 N15           -3.7327    -2.1367     0.4453 N.2     
  16 C16           -5.0376    -2.3890     0.3086 C.2     
  17 N17           -5.6835    -1.2583     0.1487 N.2     
  18 N18           -4.7285    -0.2295     0.1924 N.am    
  19 C19           -4.9575     1.0930     0.0699 C.2     
  20 N20           -6.2202     1.5506    -0.0434 N.am    
  21 C21           -6.4692     2.9881    -0.1765 C.3     
  22 Br22          -9.8359    -1.8841    -2.2582 Br      
  23 O23            1.4506     1.7326     0.7728 O.3     
  24 C24            1.6752     2.8456    -0.0949 C.3     
  25 O25            0.8904    -0.4250     2.3863 O.3     
  26 C26            0.5320    -1.5494     3.1920 C.3     
  27 C27            1.6748    -1.8926     4.1124 C.ar    
  28 C28            1.7518    -1.3125     5.3648 C.ar    
  29 C29            2.8001    -1.6272     6.2091 C.ar    
  30 C30            3.7713    -2.5224     5.8011 C.ar    
  31 C31            3.6939    -3.1031     4.5491 C.ar    
  32 C32            2.6432    -2.7917     3.7065 C.ar    
  33 O33           -4.0257     1.8729     0.0618 O.2     
  34 C34           -7.9747     3.2369    -0.2873 C.3     
  35 C35           -9.8406    -6.0678     1.0614 C.3     
  36 F36          -11.1732    -6.0083     0.6398 F       
  37 F37           -9.2931    -7.3046     0.7039 F       
  38 F38           -9.7840    -5.9171     2.4511 F       
  39 H39           -1.4817    -1.4655     2.0316 H       
  40 H40           -2.6525     1.2854    -1.0439 H       
  41 H41           -0.4749     2.4112    -0.8615 H       
  42 H42           -5.0803    -4.4347     0.5328 H       
  43 H43           -7.0611    -2.1321    -1.2805 H       
  44 H44          -10.7401    -4.2035    -0.6718 H       
  45 H45           -7.2156    -5.5052     1.3445 H       
  46 H46           -6.9640     0.9281    -0.0369 H       
  47 H47           -6.0786     3.5071     0.6989 H       
  48 H48           -5.9724     3.3616    -1.0719 H       
  49 H49            2.6715     3.2501     0.0835 H       
  50 H50            1.5958     2.5196    -1.1320 H       
  51 H51            0.9296     3.6160     0.1019 H       
  52 H52           -0.3505    -1.3059     3.7836 H       
  53 H53            0.3145    -2.4024     2.5492 H       
  54 H54            0.9930    -0.6131     5.6835 H       
  55 H55            2.8606    -1.1734     7.1873 H       
  56 H56            4.5907    -2.7677     6.4605 H       
  57 H57            4.4528    -3.8022     4.2303 H       
  58 H58            2.5827    -3.2455     2.7283 H       
  59 H59           -8.1600     4.3064    -0.3863 H       
  60 H60           -8.3653     2.7179    -1.1626 H       
  61 H61           -8.4715     2.8634     0.6082 H       
@<TRIPOS>BOND
   1    1    2 ar
   2    1   23 1
   3    1    6 ar
   4    2    3 ar
   5    2   25 1
   6    3    4 ar
   7    3   39 1
   8    4    5 ar
   9    4    7 1
  10    5    6 ar
  11    5   40 1
  12    6   41 1
  13    7   15 2
  14    7   18 1
  15    8    9 1
  16    8   16 1
  17    8   42 1
  18    9   10 ar
  19    9   14 ar
  20   10   11 ar
  21   10   43 1
  22   11   12 ar
  23   11   22 1
  24   12   13 ar
  25   12   44 1
  26   13   14 ar
  27   13   35 1
  28   14   45 1
  29   15   16 1
  30   16   17 2
  31   17   18 1
  32   18   19 am
  33   19   20 am
  34   19   33 2
  35   20   21 1
  36   20   46 1
  37   21   34 1
  38   21   47 1
  39   21   48 1
  40   23   24 1
  41   24   49 1
  42   24   50 1
  43   24   51 1
  44   25   26 1
  45   26   27 1
  46   26   52 1
  47   26   53 1
  48   27   28 ar
  49   27   32 ar
  50   28   29 ar
  51   28   54 1
  52   29   30 ar
  53   29   55 1
  54   30   31 ar
  55   30   56 1
  56   31   32 ar
  57   31   57 1
  58   32   58 1
  59   34   59 1
  60   34   60 1
  61   34   61 1
  62   35   36 1
  63   35   37 1
  64   35   38 1

#	End of record

