#	Name: ASD00660011
#	Creating user name:	WinNT
#	Creation time:	15. 06. 2019 18:36

#	Modifying user name:	WinNT
#	Modification time:	15. 06. 2019 18:36

#	Program:	/corina/corina34_cracker 3.40 0067  02.08.2006

@<TRIPOS>MOLECULE
ASD00660011
  61   64    0    0    0
SMALL
NO_CHARGES


@<TRIPOS>ATOM
   1 C1            -0.2398     0.8384     0.2090 C.ar    
   2 C2            -0.0008    -0.5062     0.4623 C.ar    
   3 C3             1.2577    -1.0405     0.3054 C.ar    
   4 C4             2.3100    -0.2221    -0.1141 C.ar    
   5 C5             2.0630     1.1461    -0.3711 C.ar    
   6 C6             0.7804     1.6660    -0.2055 C.ar    
   7 N7             3.5624    -0.7087    -0.2800 N.2     
   8 C8             4.5492     0.0583    -0.6729 C.2     
   9 N9             4.3962     1.3904    -0.9424 N.am    
  10 C10            3.1872     1.9836    -0.8103 C.2     
  11 C11            5.4996     2.1465    -1.3586 C.ar    
  12 C12            6.5255     2.4293    -0.4666 C.ar    
  13 C13            7.6123     3.1746    -0.8800 C.ar    
  14 C14            7.6794     3.6391    -2.1807 C.ar    
  15 C15            6.6591     3.3595    -3.0713 C.ar    
  16 C16            5.5724     2.6099    -2.6655 C.ar    
  17 O17            3.0366     3.1681    -1.0472 O.2     
  18 S18            6.1473    -0.6592    -0.8620 S.3     
  19 C19            5.7821    -2.3684    -0.3915 C.3     
  20 C20            4.8209    -2.9837    -1.4107 C.3     
  21 C21            5.4785    -2.9908    -2.7921 C.3     
  22 C22            7.0607    -3.1655    -0.3621 C.2     
  23 N23            7.2751    -4.0593     0.6236 N.am    
  24 O24            7.8968    -3.0026    -1.2254 O.2     
  25 C25            8.5595    -4.7652     0.7277 C.3     
  26 C26            8.2911    -6.2727     0.7755 C.3     
  27 C27            7.3128    -6.5768     1.9124 C.3     
  28 C28            5.9868    -5.8582     1.6526 C.3     
  29 C29            6.2311    -4.3419     1.6180 C.3     
  30 C30            7.0728    -8.0628     1.9843 C.2     
  31 N31            6.2398    -8.5666     2.9163 N.am    
  32 O32            7.6292    -8.8054     1.2033 O.2     
  33 C33            4.4886    -4.4186    -0.9966 C.3     
  34 H34           -1.2355     1.2377     0.3338 H       
  35 H35           -0.8127    -1.1402     0.7869 H       
  36 H36            1.4314    -2.0875     0.5058 H       
  37 H37            0.5878     2.7107    -0.4005 H       
  38 H38            6.4734     2.0671     0.5495 H       
  39 H39            8.4104     3.3951    -0.1866 H       
  40 H40            8.5303     4.2217    -2.5017 H       
  41 H41            6.7141     3.7243    -4.0863 H       
  42 H42            4.7759     2.3918    -3.3615 H       
  43 H43            5.3221    -2.3829     0.5965 H       
  44 H44            3.9046    -2.3946    -1.4475 H       
  45 H45            6.3948    -3.5799    -2.7553 H       
  46 H46            4.7937    -3.4291    -3.5182 H       
  47 H47            5.7153    -1.9686    -3.0871 H       
  48 H48            9.1764    -4.5313    -0.1399 H       
  49 H49            9.0733    -4.4565     1.6380 H       
  50 H50            7.8596    -6.5957    -0.1719 H       
  51 H51            9.2271    -6.8035     0.9493 H       
  52 H52            7.7342    -6.2312     2.8564 H       
  53 H53            5.5770    -6.1850     0.6969 H       
  54 H54            5.2827    -6.0939     2.4506 H       
  55 H55            6.5541    -4.0012     2.6017 H       
  56 H56            5.3111    -3.8299     1.3357 H       
  57 H57            5.7947    -7.9727     3.5409 H       
  58 H58            6.0853    -9.5232     2.9626 H       
  59 H59            3.8640    -4.8818    -1.7605 H       
  60 H60            5.4114    -4.9882    -0.8873 H       
  61 H61            3.9535    -4.4080    -0.0470 H       
@<TRIPOS>BOND
   1    1    2 ar
   2    1    6 ar
   3    1   34 1
   4    2    3 ar
   5    2   35 1
   6    3    4 ar
   7    3   36 1
   8    4    5 ar
   9    4    7 1
  10    5    6 ar
  11    5   10 1
  12    6   37 1
  13    7    8 2
  14    8    9 1
  15    8   18 1
  16    9   10 am
  17    9   11 1
  18   10   17 2
  19   11   12 ar
  20   11   16 ar
  21   12   13 ar
  22   12   38 1
  23   13   14 ar
  24   13   39 1
  25   14   15 ar
  26   14   40 1
  27   15   16 ar
  28   15   41 1
  29   16   42 1
  30   18   19 1
  31   19   20 1
  32   19   22 1
  33   19   43 1
  34   20   21 1
  35   20   33 1
  36   20   44 1
  37   21   45 1
  38   21   46 1
  39   21   47 1
  40   22   23 am
  41   22   24 2
  42   23   25 1
  43   23   29 1
  44   25   26 1
  45   25   48 1
  46   25   49 1
  47   26   27 1
  48   26   50 1
  49   26   51 1
  50   27   28 1
  51   27   30 1
  52   27   52 1
  53   28   29 1
  54   28   53 1
  55   28   54 1
  56   29   55 1
  57   29   56 1
  58   30   31 am
  59   30   32 2
  60   31   57 1
  61   31   58 1
  62   33   59 1
  63   33   60 1
  64   33   61 1

#	End of record

