#	Name: ASD07930833
#	Creating user name:	WinNT
#	Creation time:	15. 06. 2019 21:13

#	Modifying user name:	WinNT
#	Modification time:	15. 06. 2019 21:13

#	Program:	/corina/corina34_cracker 3.40 0067  02.08.2006

@<TRIPOS>MOLECULE
ASD07930833
  30   30    0    0    0
SMALL
NO_CHARGES


@<TRIPOS>ATOM
   1 C1            -0.0184     1.5028     0.0103 C.2     
   2 C2             0.0021    -0.0041     0.0020 C.3     
   3 O3            -1.3386    -0.4987     0.0122 O.3     
   4 C4            -1.4517    -2.4413     1.4454 C.3     
   5 C5            -1.4321    -1.9246     0.0054 C.3     
   6 C6            -2.6995    -2.3416    -0.6952 C.2     
   7 C7            -2.6390    -3.0953    -1.7650 C.2     
   8 C8             1.2490     2.2576     0.0023 C.ar    
   9 C9             1.2333     3.6565     0.0099 C.ar    
  10 C10            2.4238     4.3572     0.0023 C.ar    
  11 C11            3.6305     3.6768    -0.0130 C.ar    
  12 C12            3.6513     2.2899    -0.0206 C.ar    
  13 C13            2.4692     1.5788    -0.0073 C.ar    
  14 F14            4.7918     4.3671    -0.0208 F       
  15 F15            0.0568     4.3205     0.0243 F       
  16 Br16           5.3042     1.3715    -0.0420 Br      
  17 N17           -1.1476     2.1344     0.0191 N.2     
  18 O18           -2.3642     1.4099     0.0209 O.3     
  19 H19            0.5123    -0.3556    -0.8948 H       
  20 H20            0.5293    -0.3651     0.8851 H       
  21 H21           -1.5230    -3.5289     1.4402 H       
  22 H22           -0.5349    -2.1397     1.9521 H       
  23 H23           -2.3110    -2.0233     1.9697 H       
  24 H24           -0.5727    -2.3426    -0.5189 H       
  25 H25           -3.6576    -2.0191    -0.3153 H       
  26 H26           -3.5473    -3.3941    -2.2671 H       
  27 H27           -1.6808    -3.4178    -2.1449 H       
  28 H28            2.4139     5.4371     0.0078 H       
  29 H29            2.4875     0.4990    -0.0087 H       
  30 H30           -3.1541     1.9676     0.0277 H       
@<TRIPOS>BOND
   1    1    2 1
   2    1    8 1
   3    1   17 2
   4    2    3 1
   5    2   19 1
   6    2   20 1
   7    3    5 1
   8    4    5 1
   9    4   21 1
  10    4   22 1
  11    4   23 1
  12    5    6 1
  13    5   24 1
  14    6    7 2
  15    6   25 1
  16    7   26 1
  17    7   27 1
  18    8    9 ar
  19    8   13 ar
  20    9   10 ar
  21    9   15 1
  22   10   11 ar
  23   10   28 1
  24   11   12 ar
  25   11   14 1
  26   12   13 ar
  27   12   16 1
  28   13   29 1
  29   17   18 1
  30   18   30 1

#	End of record

