#	Name: ASD01030025
#	Creating user name:	WinNT
#	Creation time:	15. 06. 2019 18:58

#	Modifying user name:	WinNT
#	Modification time:	15. 06. 2019 18:58

#	Program:	/corina/corina34_cracker 3.40 0067  02.08.2006

@<TRIPOS>MOLECULE
ASD01030025
  33   32    0    0    0
SMALL
NO_CHARGES


@<TRIPOS>ATOM
   1 C1            -0.0184     1.5028     0.0103 C.3     
   2 C2             0.0021    -0.0041     0.0020 C.2     
   3 C3            -1.2926    -0.7753     0.0102 C.3     
   4 C4            -0.9927    -2.2755    -0.0007 C.3     
   5 C5            -2.3072    -3.0585     0.0077 C.3     
   6 C6            -2.0072    -4.5588    -0.0033 C.3     
   7 C7            -3.3217    -5.3417     0.0051 C.3     
   8 P8             1.6919     2.1338    -0.0026 P.3     
   9 O9             2.4043     1.7251    -1.3874 O.3     
  10 O10            1.6733     3.7375     0.1385 O.3     
  11 O11            2.4426     1.5475     1.1301 O.2     
  12 O12            1.0559    -0.5936    -0.0112 O.2     
  13 C13            3.7830     1.9839    -1.6594 C.3     
  14 C14            2.8614     4.5215     0.2647 C.3     
  15 H15           -0.5455     1.8639    -0.8728 H       
  16 H16           -0.5286     1.8543     0.9071 H       
  17 H17           -1.8592    -0.5245     0.9070 H       
  18 H18           -1.8762    -0.5150    -0.8728 H       
  19 H19           -0.4261    -2.5263    -0.8975 H       
  20 H20           -0.4091    -2.5358     0.8824 H       
  21 H21           -2.8737    -2.8077     0.9045 H       
  22 H22           -2.8907    -2.7982    -0.8754 H       
  23 H23           -1.4407    -4.8095    -0.9000 H       
  24 H24           -1.4237    -4.8190     0.8798 H       
  25 H25           -3.8882    -5.0910     0.9019 H       
  26 H26           -3.9052    -5.0814    -0.8780 H       
  27 H27           -3.1080    -6.4105    -0.0027 H       
  28 H28            3.9679     3.0570    -1.6101 H       
  29 H29            4.4011     1.4744    -0.9202 H       
  30 H30            4.0318     1.6178    -2.6555 H       
  31 H31            3.4056     4.2152     1.1580 H       
  32 H32            3.4903     4.3720    -0.6130 H       
  33 H33            2.5945     5.5752     0.3452 H       
@<TRIPOS>BOND
   1    1    2 1
   2    1    8 1
   3    1   15 1
   4    1   16 1
   5    2    3 1
   6    2   12 2
   7    3    4 1
   8    3   17 1
   9    3   18 1
  10    4    5 1
  11    4   19 1
  12    4   20 1
  13    5    6 1
  14    5   21 1
  15    5   22 1
  16    6    7 1
  17    6   23 1
  18    6   24 1
  19    7   25 1
  20    7   26 1
  21    7   27 1
  22    8    9 1
  23    8   10 1
  24    8   11 2
  25    9   13 1
  26   10   14 1
  27   13   28 1
  28   13   29 1
  29   13   30 1
  30   14   31 1
  31   14   32 1
  32   14   33 1

#	End of record

