#	Name: ASD01901281
#	Creating user name:	WinNT
#	Creation time:	15. 06. 2019 19:53

#	Modifying user name:	WinNT
#	Modification time:	15. 06. 2019 19:53

#	Program:	/corina/corina34_cracker 3.40 0067  02.08.2006

@<TRIPOS>MOLECULE
ASD01901281
  48   51    0    0    0
SMALL
NO_CHARGES


@<TRIPOS>ATOM
   1 C1             0.8759     1.3393     0.9719 C.ar    
   2 C2             0.8331    -0.0373     0.8989 C.ar    
   3 C3             0.9084    -0.6711    -0.3290 C.ar    
   4 C4             1.0271     0.0698    -1.4917 C.ar    
   5 C5             1.0716     1.4471    -1.4343 C.ar    
   6 C6             0.9956     2.0942    -0.1980 C.ar    
   7 C7             1.0406     3.5239    -0.1303 C.1     
   8 C8             1.0776     4.6960    -0.0748 C.1     
   9 C9             1.1226     6.1257    -0.0072 C.ar    
  10 C10            1.1011     8.1633     1.2435 C.ar    
  11 C11            1.0532     6.7824     1.2303 C.ar    
  12 C12            1.2422     6.8872    -1.1720 C.ar    
  13 N13            1.2843     8.2019    -1.1128 N.ar    
  14 C14            1.2161     8.8515     0.0389 C.ar    
  15 N15            1.2645    10.2467     0.0457 N.am    
  16 N16            2.5882    12.1974     0.1412 N.am    
  17 C17            2.4554    10.8588     0.1292 C.2     
  18 C18            0.1121    10.9451    -0.0376 C.2     
  19 C19            3.9223    12.7955     0.2345 C.3     
  20 O20           -0.9575    10.3723    -0.1168 O.2     
  21 O21            3.4578    10.1741     0.1973 O.2     
  22 C22            4.5945    12.3426     1.5322 C.3     
  23 C23            4.7666    12.3479    -0.9604 C.3     
  24 Cl24           1.0183     9.0301     2.7454 Cl      
  25 N25           -0.1041    14.5286    -0.0464 N.pl3   
  26 C26            1.2405    14.3532     0.0537 C.2     
  27 C27            0.1796    12.4162    -0.0297 C.2     
  28 N28           -0.7002    13.3883    -0.0924 N.2     
  29 C29            1.4640    13.0199     0.0658 C.2     
  30 C30           -0.7782    15.8285    -0.0915 C.3     
  31 H31            0.8125     1.8328     1.9304 H       
  32 H32            0.7409    -0.6220     1.8022 H       
  33 H33            0.8748    -1.7494    -0.3800 H       
  34 H34            1.0854    -0.4317    -2.4464 H       
  35 H35            1.1650     2.0240    -2.3425 H       
  36 H36            0.9642     6.2228     2.1497 H       
  37 H37            1.3010     6.3929    -2.1304 H       
  38 H38            3.8345    13.8819     0.2308 H       
  39 H39            4.6823    11.2561     1.5359 H       
  40 H40            5.5872    12.7875     1.6016 H       
  41 H41            3.9931    12.6615     2.3834 H       
  42 H42            4.8543    11.2614    -0.9566 H       
  43 H43            4.2877    12.6705    -1.8848 H       
  44 H44            5.7592    12.7928    -0.8909 H       
  45 H45            1.9878    15.1309     0.1102 H       
  46 H46           -0.8685    16.1551    -1.1275 H       
  47 H47           -1.7711    15.7384     0.3489 H       
  48 H48           -0.1964    16.5591     0.4704 H       
@<TRIPOS>BOND
   1    1    2 ar
   2    1    6 ar
   3    1   31 1
   4    2    3 ar
   5    2   32 1
   6    3    4 ar
   7    3   33 1
   8    4    5 ar
   9    4   34 1
  10    5    6 ar
  11    5   35 1
  12    6    7 1
  13    7    8 3
  14    8    9 1
  15    9   12 ar
  16    9   11 ar
  17   10   11 ar
  18   10   14 ar
  19   10   24 1
  20   11   36 1
  21   12   13 ar
  22   12   37 1
  23   13   14 ar
  24   14   15 1
  25   15   18 am
  26   15   17 am
  27   16   17 am
  28   16   29 1
  29   16   19 1
  30   17   21 2
  31   18   27 1
  32   18   20 2
  33   19   22 1
  34   19   23 1
  35   19   38 1
  36   22   39 1
  37   22   40 1
  38   22   41 1
  39   23   42 1
  40   23   43 1
  41   23   44 1
  42   25   26 1
  43   25   28 1
  44   25   30 1
  45   26   29 2
  46   26   45 1
  47   27   28 2
  48   27   29 1
  49   30   46 1
  50   30   47 1
  51   30   48 1

#	End of record

