#	Name: ASD03331566
#	Creating user name:	WinNT
#	Creation time:	15. 06. 2019 20:39

#	Modifying user name:	WinNT
#	Modification time:	15. 06. 2019 20:39

#	Program:	/corina/corina34_cracker 3.40 0067  02.08.2006

@<TRIPOS>MOLECULE
ASD03331566
  63   65    0    0    0
SMALL
NO_CHARGES


@<TRIPOS>ATOM
   1 C1             0.7027     1.0356    -1.8095 C.ar    
   2 C2             0.5307    -0.2090    -1.2030 C.ar    
   3 C3             1.8508     1.8904    -1.4365 C.2     
   4 N4             1.9742     3.2161    -1.7074 N.pl3   
   5 C5             3.1723     3.6283    -1.2008 C.2     
   6 C6             3.7574     2.5482    -0.6267 C.2     
   7 N7             2.9206     1.4964    -0.7822 N.2     
   8 C8             5.0663     2.5252     0.0497 C.2     
   9 O9             5.7273     3.5430     0.1299 O.2     
  10 N10            5.5310     1.3764     0.5795 N.am    
  11 C11            6.8324     1.3536     1.2520 C.3     
  12 C12            7.3979    -0.0425     1.2046 C.2     
  13 C13            6.6607     1.7851     2.7099 C.3     
  14 C14            5.6292     0.8831     3.3906 C.3     
  15 C15            8.0011     1.6667     3.4380 C.3     
  16 C16            6.1801     3.2368     2.7588 C.3     
  17 C17           -0.5430    -1.0033    -1.5555 C.ar    
  18 C18           -1.4487    -0.5642    -2.5109 C.ar    
  19 C19           -1.2804     0.6710    -3.1152 C.ar    
  20 C20           -0.2087     1.4691    -2.7732 C.ar    
  21 F21           -2.4976    -1.3439    -2.8530 F       
  22 F22           -0.7113    -2.2091    -0.9700 F       
  23 N23            8.7168    -0.2421     1.3970 N.am    
  24 O24            6.6662    -0.9863     0.9933 O.2     
  25 C25           10.7895    -1.5350     1.5151 C.3     
  26 C26            9.2846    -1.5839     1.2435 C.3     
  27 C27            1.0421     4.1073    -2.4037 C.3     
  28 C28            1.4391     5.5554    -2.0887 C.3     
  29 N29            2.8776     5.7407    -2.3258 N.3     
  30 C30            3.6804     5.0431    -1.3050 C.3     
  31 C31            0.6486     6.5067    -2.9892 C.3     
  32 C32            3.2223     7.1675    -2.3822 C.3     
  33 H33            1.2358    -0.5509    -0.4598 H       
  34 H34            5.0038     0.5647     0.5156 H       
  35 H35            7.5138     2.0390     0.7481 H       
  36 H36            5.9716    -0.1511     3.3557 H       
  37 H37            5.5069     1.1905     4.4292 H       
  38 H38            4.6742     0.9674     2.8719 H       
  39 H39            8.7400     2.2977     2.9438 H       
  40 H40            7.8823     1.9885     4.4726 H       
  41 H41            8.3361     0.6297     3.4162 H       
  42 H42            5.2252     3.3211     2.2401 H       
  43 H43            6.0578     3.5442     3.7974 H       
  44 H44            6.9150     3.8794     2.2739 H       
  45 H45           -1.9876     1.0080    -3.8586 H       
  46 H46           -0.0793     2.4319    -3.2452 H       
  47 H47            9.2902     0.5026     1.6371 H       
  48 H48           11.2647    -0.8562     0.8069 H       
  49 H49           10.9641    -1.1806     2.5310 H       
  50 H50           11.2120    -2.5333     1.4009 H       
  51 H51            8.8095    -2.2627     1.9517 H       
  52 H52            9.1101    -1.9382     0.2276 H       
  53 H53            1.1018     3.9350    -3.4783 H       
  54 H54            0.0259     3.9206    -2.0565 H       
  55 H55            1.2129     5.7742    -1.0451 H       
  56 H56            3.5714     5.5455    -0.3438 H       
  57 H57            4.7292     5.0372    -1.6016 H       
  58 H58           -0.4183     6.3746    -2.8094 H       
  59 H59            0.9300     7.5359    -2.7662 H       
  60 H60            0.8711     6.2874    -4.0335 H       
  61 H61            2.9600     7.6423    -1.4368 H       
  62 H62            4.2925     7.2760    -2.5586 H       
  63 H63            2.6704     7.6429    -3.1930 H       
@<TRIPOS>BOND
   1    1    2 ar
   2    1    3 1
   3    1   20 ar
   4    2   17 ar
   5    2   33 1
   6    3    4 1
   7    3    7 2
   8    4    5 1
   9    4   27 1
  10    5    6 2
  11    5   30 1
  12    6    7 1
  13    6    8 1
  14    8    9 2
  15    8   10 am
  16   10   11 1
  17   10   34 1
  18   11   13 1
  19   11   12 1
  20   11   35 1
  21   12   23 am
  22   12   24 2
  23   13   14 1
  24   13   15 1
  25   13   16 1
  26   14   36 1
  27   14   37 1
  28   14   38 1
  29   15   39 1
  30   15   40 1
  31   15   41 1
  32   16   42 1
  33   16   43 1
  34   16   44 1
  35   17   18 ar
  36   17   22 1
  37   18   19 ar
  38   18   21 1
  39   19   20 ar
  40   19   45 1
  41   20   46 1
  42   23   26 1
  43   23   47 1
  44   25   26 1
  45   25   48 1
  46   25   49 1
  47   25   50 1
  48   26   51 1
  49   26   52 1
  50   27   28 1
  51   27   53 1
  52   27   54 1
  53   28   29 1
  54   28   31 1
  55   28   55 1
  56   29   30 1
  57   29   32 1
  58   30   56 1
  59   30   57 1
  60   31   58 1
  61   31   59 1
  62   31   60 1
  63   32   61 1
  64   32   62 1
  65   32   63 1

#	End of record

