#	Name: ASD01150379
#	Creating user name:	WinNT
#	Creation time:	15. 06. 2019 19:04

#	Modifying user name:	WinNT
#	Modification time:	15. 06. 2019 19:04

#	Program:	/corina/corina34_cracker 3.40 0067  02.08.2006

@<TRIPOS>MOLECULE
ASD01150379
  44   46    0    0    0
SMALL
NO_CHARGES


@<TRIPOS>ATOM
   1 C1             0.4936     1.4531    -1.2467 C.ar    
   2 C2             0.3673     0.0775    -1.2358 C.ar    
   3 C3             1.0257    -0.6726    -0.2775 C.ar    
   4 C4             1.8169    -0.0424     0.6773 C.ar    
   5 C5             1.9451     1.3385     0.6675 C.ar    
   6 C6             1.2828     2.0876    -0.2953 C.ar    
   7 N7             1.4105     3.4813    -0.3082 N.am    
   8 C8             0.2987     4.2290    -0.3875 C.2     
   9 N9             0.3613     5.5756    -0.4037 N.am    
  10 C10            1.5758     6.1700    -0.3380 C.2     
  11 C11            2.7627     5.2966    -0.2522 C.2     
  12 N12            2.5864     3.9929    -0.2384 N.2     
  13 O13            1.6853     7.3815    -0.3497 O.2     
  14 C14           -0.8603     6.3795    -0.4911 C.3     
  15 O15           -0.7851     3.6817    -0.4463 O.2     
  16 C16           -1.3668     6.6763     0.8969 C.ar    
  17 C17           -0.9424     7.8131     1.5591 C.ar    
  18 C18           -1.4068     8.0853     2.8323 C.ar    
  19 C19           -2.2961     7.2209     3.4431 C.ar    
  20 C20           -2.7212     6.0846     2.7806 C.ar    
  21 C21           -2.2600     5.8147     1.5056 C.ar    
  22 C22            4.0785     5.8569    -0.1803 C.1     
  23 N23            5.1224     6.3014    -0.1233 N.1     
  24 N24            2.4830    -0.8014     1.6477 N.am    
  25 C25            2.7598    -0.2627     2.8517 C.2     
  26 O26            2.5019     0.9025     3.0684 O.2     
  27 C27            3.3897    -1.1080     3.9285 C.3     
  28 F28            0.8995    -2.0176    -0.2688 F       
  29 N29           -2.7927     7.5119     4.8068 N.pl3   
  30 O30           -2.4178     8.5129     5.3908 O.2     
  31 O31           -3.5762     6.7503     5.3450 O.2     
  32 H32           -0.0181     2.0357    -1.9985 H       
  33 H33           -0.2466    -0.4134    -1.9764 H       
  34 H34            2.5586     1.8301     1.4079 H       
  35 H35           -0.6435     7.3152    -1.0065 H       
  36 H36           -1.6198     5.8274    -1.0446 H       
  37 H37           -0.2476     8.4884     1.0819 H       
  38 H38           -1.0747     8.9730     3.3500 H       
  39 H39           -3.4156     5.4091     3.2579 H       
  40 H40           -2.5921     4.9269     0.9880 H       
  41 H41            2.7450    -1.7149     1.4532 H       
  42 H42            4.3522    -1.4825     3.5800 H       
  43 H43            3.5373    -0.5047     4.8243 H       
  44 H44            2.7352    -1.9483     4.1602 H       
@<TRIPOS>BOND
   1    1    2 ar
   2    1    6 ar
   3    1   32 1
   4    2    3 ar
   5    2   33 1
   6    3    4 ar
   7    3   28 1
   8    4    5 ar
   9    4   24 1
  10    5    6 ar
  11    5   34 1
  12    6    7 1
  13    7    8 am
  14    7   12 1
  15    8    9 am
  16    8   15 2
  17    9   10 am
  18    9   14 1
  19   10   11 1
  20   10   13 2
  21   11   12 2
  22   11   22 1
  23   14   16 1
  24   14   35 1
  25   14   36 1
  26   16   17 ar
  27   16   21 ar
  28   17   18 ar
  29   17   37 1
  30   18   19 ar
  31   18   38 1
  32   19   20 ar
  33   19   29 1
  34   20   21 ar
  35   20   39 1
  36   21   40 1
  37   22   23 3
  38   24   25 am
  39   24   41 1
  40   25   26 2
  41   25   27 1
  42   27   42 1
  43   27   43 1
  44   27   44 1
  45   29   30 2
  46   29   31 2

#	End of record

