#	Name: ASD03090689
#	Creating user name:	WinNT
#	Creation time:	15. 06. 2019 20:29

#	Modifying user name:	WinNT
#	Modification time:	15. 06. 2019 20:29

#	Program:	/corina/corina34_cracker 3.40 0067  02.08.2006

@<TRIPOS>MOLECULE
ASD03090689
  29   30    0    0    0
SMALL
NO_CHARGES


@<TRIPOS>ATOM
   1 N1            -0.0162     1.3436     0.0094 N.am    
   2 C2             0.0207    -0.0037     0.0047 C.2     
   3 O3             1.0851    -0.5824    -0.0984 O.2     
   4 N4            -1.1222    -0.7095     0.1144 N.am    
   5 S5            -2.4418    -3.1362     0.2396 S.3     
   6 C6            -1.0841    -2.0997     0.1095 C.2     
   7 N7            -0.0133    -2.8274     0.0051 N.2     
   8 N8            -0.1538    -4.0820     0.0173 N.2     
   9 C9            -1.3639    -4.5285     0.1338 C.2     
  10 C10           -1.7769    -5.9773     0.1716 C.3     
  11 F11           -0.6363    -6.7874     0.1760 F       
  12 F12           -2.5250    -6.2189     1.3288 F       
  13 F13           -2.5528    -6.2706    -0.9550 F       
  14 C14            1.2206     3.3683     0.4967 C.ar    
  15 C15            1.1783     2.0778    -0.0139 C.ar    
  16 C16            2.3374     1.5219    -0.5489 C.ar    
  17 C17            3.4937     2.2831    -0.5505 C.ar    
  18 C18            3.4606     3.5665    -0.0227 C.ar    
  19 N19            2.3420     4.0642     0.4779 N.ar    
  20 O20            4.5900     4.3198    -0.0199 O.3     
  21 C21            4.4930     5.6323     0.5368 C.3     
  22 Cl22          -0.2186     4.0768     1.1603 Cl      
  23 H23           -0.8691     1.8053     0.0249 H       
  24 H24           -1.9713    -0.2479     0.1966 H       
  25 H25            2.3346     0.5203    -0.9528 H       
  26 H26            4.4106     1.8831    -0.9573 H       
  27 H27            3.7568     6.2104    -0.0217 H       
  28 H28            4.1848     5.5626     1.5800 H       
  29 H29            5.4634     6.1250     0.4768 H       
@<TRIPOS>BOND
   1    1    2 am
   2    1   15 1
   3    1   23 1
   4    2    3 2
   5    2    4 am
   6    4    6 1
   7    4   24 1
   8    5    6 1
   9    5    9 1
  10    6    7 2
  11    7    8 1
  12    8    9 2
  13    9   10 1
  14   10   11 1
  15   10   12 1
  16   10   13 1
  17   14   15 ar
  18   14   19 ar
  19   14   22 1
  20   15   16 ar
  21   16   17 ar
  22   16   25 1
  23   17   18 ar
  24   17   26 1
  25   18   19 ar
  26   18   20 1
  27   20   21 1
  28   21   27 1
  29   21   28 1
  30   21   29 1

#	End of record

