#	Name: ASD04978008
#	Creating user name:	WinNT
#	Creation time:	15. 06. 2019 20:56

#	Modifying user name:	WinNT
#	Modification time:	15. 06. 2019 20:56

#	Program:	/corina/corina34_cracker 3.40 0067  02.08.2006

@<TRIPOS>MOLECULE
ASD04978008
  49   51    0    0    0
SMALL
NO_CHARGES


@<TRIPOS>ATOM
   1 O1            -0.0173     1.4248     0.0099 O.3     
   2 C2             0.0021    -0.0041     0.0020 C.3     
   3 C3            -1.4333    -0.5336     0.0129 C.3     
   4 C4            -1.4374    -2.0739     0.1309 C.3     
   5 O5            -1.6648    -2.4718     1.4844 O.3     
   6 C6            -2.6134    -2.5163    -0.7684 C.3     
   7 O7            -3.6030    -3.2008     0.0023 O.3     
   8 C8            -3.1807    -1.1909    -1.3233 C.3     
   9 O9            -2.0803    -0.2585    -1.2487 O.3     
  10 N10           -3.6105    -1.3624    -2.7133 N.pl3   
  11 C11           -2.8730    -1.0811    -3.8268 C.2     
  12 N12           -3.5649    -1.3534    -4.8943 N.2     
  13 C13           -4.7831    -1.8239    -4.5316 C.2     
  14 C14           -5.9204    -2.2678    -5.2460 C.2     
  15 O15           -5.9284    -2.2762    -6.4652 O.2     
  16 N16           -6.9978    -2.6829    -4.5436 N.am    
  17 C17           -6.9778    -2.6697    -3.1808 C.2     
  18 N18           -8.0862    -3.0974    -2.4940 N.pl3   
  19 N19           -5.9274    -2.2597    -2.5054 N.2     
  20 C20           -4.8226    -1.8396    -3.1327 C.2     
  21 P21            1.3209     2.3199     0.0019 P.3     
  22 O22            2.1650     1.9351    -1.1513 O.2     
  23 O23            0.9250     3.8759    -0.1183 O.3     
  24 P24            1.7195     5.2001    -0.5736 P.3     
  25 O25            2.1778     5.0440    -1.9722 O.2     
  26 N26            0.6978     6.5330    -0.4636 N.3     
  27 P27            1.4913     7.9414    -0.9318 P.3     
  28 O28            2.6598     8.1652    -0.0516 O.2     
  29 O29            1.9878     7.7961    -2.4564 O.3     
  30 O30            0.4826     9.1906    -0.8127 O.3     
  31 O31            2.9927     5.4191     0.3871 O.3     
  32 O32            2.1367     2.0777     1.3686 O.3     
  33 H33            0.5123    -0.3556    -0.8948 H       
  34 H34            0.5293    -0.3651     0.8851 H       
  35 H35           -1.9950    -0.0887     0.8343 H       
  36 H36           -0.4975    -2.4875    -0.2350 H       
  37 H37           -1.6773    -3.4298     1.6159 H       
  38 H38           -2.2562    -3.1506    -1.5796 H       
  39 H39           -3.2828    -4.0099     0.4241 H       
  40 H40           -4.0120    -0.8468    -0.7079 H       
  41 H41           -1.8660    -0.6910    -3.8223 H       
  42 H42           -7.7894    -2.9914    -5.0116 H       
  43 H43           -8.8689    -3.4032    -2.9785 H       
  44 H44           -8.0870    -3.0938    -1.5240 H       
  45 H45           -0.1402     6.3921    -1.0076 H       
  46 H46            1.2730     7.6471    -3.0904 H       
  47 H47            0.8736    10.0375    -1.0674 H       
  48 H48            2.7666     5.5289     1.3208 H       
  49 H49            1.6434     2.3092     2.1674 H       
@<TRIPOS>BOND
   1    1    2 1
   2    1   21 1
   3    2    3 1
   4    2   33 1
   5    2   34 1
   6    3    4 1
   7    3    9 1
   8    3   35 1
   9    4    5 1
  10    4    6 1
  11    4   36 1
  12    5   37 1
  13    6    7 1
  14    6    8 1
  15    6   38 1
  16    7   39 1
  17    8    9 1
  18    8   10 1
  19    8   40 1
  20   10   11 1
  21   10   20 1
  22   11   12 2
  23   11   41 1
  24   12   13 1
  25   13   14 1
  26   13   20 2
  27   14   15 2
  28   14   16 am
  29   16   17 1
  30   16   42 1
  31   17   18 1
  32   17   19 2
  33   18   43 1
  34   18   44 1
  35   19   20 1
  36   21   22 2
  37   21   23 1
  38   21   32 1
  39   23   24 1
  40   24   25 2
  41   24   26 1
  42   24   31 1
  43   26   27 1
  44   26   45 1
  45   27   28 2
  46   27   29 1
  47   27   30 1
  48   29   46 1
  49   30   47 1
  50   31   48 1
  51   32   49 1

#	End of record

