#	Name: ASD05380117
#	Creating user name:	WinNT
#	Creation time:	15. 06. 2019 20:59

#	Modifying user name:	WinNT
#	Modification time:	15. 06. 2019 20:59

#	Program:	/corina/corina34_cracker 3.40 0067  02.08.2006

@<TRIPOS>MOLECULE
ASD05380117
  64   69    0    0    0
SMALL
NO_CHARGES


@<TRIPOS>ATOM
   1 C1            -0.0417     1.9627    -0.4813 C.ar    
   2 C2            -0.0111     0.5530    -0.3905 C.ar    
   3 C3             1.1356     2.6735    -0.7037 C.ar    
   4 C4             2.3260     1.9917    -0.8338 C.ar    
   5 C5             2.3598     0.6065    -0.7451 C.ar    
   6 C6             1.2074    -0.1148    -0.5257 C.ar    
   7 N7            -1.1698    -0.1180    -0.1730 N.2     
   8 C8            -2.3028     0.5034    -0.0469 C.2     
   9 N9            -2.4258     1.8564    -0.1202 N.am    
  10 C10           -1.3395     2.6363    -0.3286 C.2     
  11 C11           -3.6869     2.4477     0.0264 C.ar    
  12 C12           -4.5523     2.5184    -1.0580 C.ar    
  13 C13           -6.1825     3.6168     0.3095 C.ar    
  14 C14           -3.5449    -0.3158     0.1924 C.3     
  15 N15           -3.8033    -1.1632    -0.9743 N.pl3   
  16 C16           -5.0892    -1.5998    -1.2412 C.ar    
  17 N17           -6.1010    -1.2596    -0.4494 N.ar    
  18 O18           -1.4346     3.8480    -0.3960 O.2     
  19 C19           -5.3563    -2.4084    -2.3589 C.ar    
  20 C20           -6.6818    -2.8206    -2.5779 C.ar    
  21 N21           -7.6271    -2.4344    -1.7275 N.ar    
  22 C22           -7.3310    -1.6716    -0.6963 C.ar    
  23 N23           -4.6052    -2.9326    -3.3570 N.2     
  24 C24           -5.3664    -3.6233    -4.1551 C.2     
  25 N25           -6.6567    -3.5848    -3.7170 N.pl3   
  26 C26           -5.7958     3.1019    -0.9135 C.ar    
  27 C27           -5.3248     3.5430     1.3978 C.ar    
  28 C28           -4.0758     2.9585     1.2565 C.ar    
  29 C29            1.1075     4.1770    -0.8017 C.3     
  30 C30           -3.3452    -1.1959     1.4279 C.3     
  31 O31           -5.7062     4.0500     2.5996 O.3     
  32 C32           -7.0370     4.5618     2.6951 C.3     
  33 C33           -7.5165     4.4748     4.1473 C.3     
  34 C34           -8.9113     5.0968     4.2540 C.3     
  35 O35           -8.8646     6.4495     3.7956 O.3     
  36 C36           -8.4682     6.5893     2.4297 C.3     
  37 C37           -7.0556     6.0272     2.2497 C.3     
  38 H38            3.2406     2.5395    -1.0066 H       
  39 H39            3.3015     0.0882    -0.8498 H       
  40 H40            1.2462    -1.1920    -0.4582 H       
  41 H41           -4.2524     2.1171    -2.0148 H       
  42 H42           -7.1552     4.0731     0.4193 H       
  43 H43           -4.3933     0.3494     0.3534 H       
  44 H44           -3.0732    -1.4183    -1.5598 H       
  45 H45           -8.1237    -1.3720    -0.0268 H       
  46 H46           -5.0261    -4.1495    -5.0347 H       
  47 H47           -7.4175    -4.0188    -4.1339 H       
  48 H48           -6.4671     3.1563    -1.7578 H       
  49 H49           -3.4068     2.9004     2.1023 H       
  50 H50            1.1699     4.6075     0.1977 H       
  51 H51            1.9539     4.5182    -1.3978 H       
  52 H52            0.1783     4.4929    -1.2760 H       
  53 H53           -4.2144    -1.8405     1.5591 H       
  54 H54           -2.4542    -1.8098     1.2964 H       
  55 H55           -3.2249    -0.5645     2.3082 H       
  56 H56           -7.6992     3.9768     2.0568 H       
  57 H57           -7.5591     3.4300     4.4549 H       
  58 H58           -6.8253     5.0175     4.7922 H       
  59 H59           -9.6105     4.5289     3.6402 H       
  60 H60           -9.2399     5.0763     5.2931 H       
  61 H61           -9.1616     6.0409     1.7921 H       
  62 H62           -8.4776     7.6439     2.1546 H       
  63 H63           -6.3552     6.6012     2.8563 H       
  64 H64           -6.7686     6.0926     1.2002 H       
@<TRIPOS>BOND
   1    1    2 ar
   2    1    3 ar
   3    1   10 1
   4    2    7 1
   5    2    6 ar
   6    3    4 ar
   7    3   29 1
   8    4    5 ar
   9    4   38 1
  10    5    6 ar
  11    5   39 1
  12    6   40 1
  13    7    8 2
  14    8    9 1
  15    8   14 1
  16    9   10 am
  17    9   11 1
  18   10   18 2
  19   11   12 ar
  20   11   28 ar
  21   12   26 ar
  22   12   41 1
  23   13   26 ar
  24   13   27 ar
  25   13   42 1
  26   14   15 1
  27   14   30 1
  28   14   43 1
  29   15   16 1
  30   15   44 1
  31   16   17 ar
  32   16   19 ar
  33   17   22 ar
  34   19   20 ar
  35   19   23 1
  36   20   21 ar
  37   20   25 1
  38   21   22 ar
  39   22   45 1
  40   23   24 2
  41   24   25 1
  42   24   46 1
  43   25   47 1
  44   26   48 1
  45   27   31 1
  46   27   28 ar
  47   28   49 1
  48   29   50 1
  49   29   51 1
  50   29   52 1
  51   30   53 1
  52   30   54 1
  53   30   55 1
  54   31   32 1
  55   32   33 1
  56   32   37 1
  57   32   56 1
  58   33   34 1
  59   33   57 1
  60   33   58 1
  61   34   35 1
  62   34   59 1
  63   34   60 1
  64   35   36 1
  65   36   37 1
  66   36   61 1
  67   36   62 1
  68   37   63 1
  69   37   64 1

#	End of record

