#	Name: ASD01411274
#	Creating user name:	WinNT
#	Creation time:	15. 06. 2019 19:19

#	Modifying user name:	WinNT
#	Modification time:	15. 06. 2019 19:19

#	Program:	/corina/corina34_cracker 3.40 0067  02.08.2006

@<TRIPOS>MOLECULE
ASD01411274
  96  103    0    0    0
SMALL
NO_CHARGES


@<TRIPOS>ATOM
   1 C1            -0.0125     1.2672     0.0376 C.ar    
   2 C2             0.0287    -0.1405     0.0865 C.ar    
   3 C3            -1.1681    -0.8691     0.1395 C.ar    
   4 C4            -2.3614    -0.2213     0.1507 C.ar    
   5 C5            -2.4196     1.1898     0.1060 C.ar    
   6 C6            -1.2397     1.9154     0.0351 C.ar    
   7 N7             1.2923     1.7162     0.0072 N.pl3   
   8 C8             2.1320     0.6284     0.0150 C.2     
   9 C9             1.3934    -0.5106     0.0672 C.2     
  10 C10            1.7120     3.1184    -0.0246 C.3     
  11 C11            1.0102     3.8823     1.0704 C.2     
  12 N12            1.0104     5.2392     1.0215 N.am    
  13 O13            0.4621     3.2949     1.9779 O.2     
  14 C14            0.2701     5.9646     2.0675 C.3     
  15 C15           -1.0602     6.4462     1.4766 C.3     
  16 C16           -2.1530     6.2772     2.4981 C.2     
  17 C17           -3.7466     1.8114     0.1383 C.2     
  18 O18           -4.7070     1.0458     0.0986 O.2     
  19 N19           -4.0388     3.1198     0.2261 N.am    
  20 C20           -3.3354     5.8381     2.1559 C.2     
  21 C21           -3.6523     5.4836     0.7269 C.3     
  22 C22           -2.9957     4.1457     0.3682 C.3     
  23 C23            3.6090     0.6666    -0.0292 C.ar    
  24 C24            4.3553    -0.1522     0.8363 C.ar    
  25 C25            1.9378    -1.9153     0.0999 C.3     
  26 C26            1.4770    -2.6112     1.3822 C.3     
  27 C27            2.0298    -4.0374     1.4154 C.3     
  28 C28            1.5144    -4.8125     0.2011 C.3     
  29 C29            1.9753    -4.1166    -1.0812 C.3     
  30 C30            1.4225    -2.6904    -1.1144 C.3     
  31 C31            5.7124    -0.1348     0.8150 C.ar    
  32 C32            6.3940     0.7100    -0.0817 C.ar    
  33 C33            5.6497     1.5395    -0.9594 C.ar    
  34 C34            4.2499     1.5052    -0.9277 C.ar    
  35 N35            7.7286     0.7377    -0.1124 N.ar    
  36 C36            8.3796     1.5257    -0.9475 C.ar    
  37 C37            7.6999     2.3699    -1.8409 C.ar    
  38 C38            6.3374     2.3841    -1.8560 C.ar    
  39 C39            9.8605     1.5199    -0.9422 C.ar    
  40 C40           10.5641     1.4151    -2.1390 C.ar    
  41 C41           10.5624     1.6261     0.2700 C.ar    
  42 C42           11.9551     1.6202     0.2645 C.ar    
  43 C43           12.6408     1.5105    -0.9271 C.ar    
  44 C44           11.9491     1.4106    -2.1284 C.ar    
  45 O45           12.6344     1.3026    -3.2968 O.3     
  46 C46           14.0610     1.2984    -3.2141 C.3     
  47 C47            9.8241     1.7443     1.5494 C.ar    
  48 C48           10.0553     0.8313     2.5777 C.ar    
  49 C49            8.8998     2.7724     1.7314 C.ar    
  50 C50            8.2154     2.8782     2.9247 C.ar    
  51 C51            8.4453     1.9661     3.9407 C.ar    
  52 C52            9.3655     0.9462     3.7670 C.ar    
  53 Cl53           7.5812     2.1053     5.4399 Cl      
  54 H54           -1.1417    -1.9487     0.1705 H       
  55 H55           -3.2795    -0.7886     0.1945 H       
  56 H56           -1.2499     2.9910    -0.0413 H       
  57 H57            2.7875     3.1983     0.1197 H       
  58 H58            1.4465     3.5524    -0.9906 H       
  59 H59            1.4850     5.7152     0.3207 H       
  60 H60            0.0777     5.3056     2.9129 H       
  61 H61            0.8531     6.8242     2.3995 H       
  62 H62           -0.9739     7.4995     1.2068 H       
  63 H63           -1.2887     5.8634     0.5861 H       
  64 H64           -1.9497     6.5259     3.5335 H       
  65 H65           -4.9788     3.3979     0.1961 H       
  66 H66           -4.1025     5.7279     2.9157 H       
  67 H67           -4.7327     5.3997     0.6051 H       
  68 H68           -3.2749     6.2613     0.0637 H       
  69 H69           -2.3046     3.8639     1.1631 H       
  70 H70           -2.4567     4.2556    -0.5739 H       
  71 H71            3.8418    -0.8037     1.5278 H       
  72 H72            3.0271    -1.8835     0.0752 H       
  73 H73            1.8441    -2.0590     2.2473 H       
  74 H74            0.3877    -2.6430     1.4070 H       
  75 H75            3.1190    -4.0056     1.3906 H       
  76 H76            1.7014    -4.5332     2.3289 H       
  77 H77            1.9083    -5.8286     0.2247 H       
  78 H78            0.4252    -4.8443     0.2258 H       
  79 H79            3.0646    -4.0848    -1.1060 H       
  80 H80            1.6082    -4.6688    -1.9463 H       
  81 H81            0.3333    -2.7222    -1.0896 H       
  82 H82            1.7509    -2.1946    -2.0279 H       
  83 H83            6.2703    -0.7697     1.4873 H       
  84 H84            3.6746     2.1328    -1.5923 H       
  85 H85            8.2555     3.0054    -2.5146 H       
  86 H86            5.7978     3.0263    -2.5363 H       
  87 H87           10.0304     1.3369    -3.0747 H       
  88 H88           12.4986     1.7019     1.1942 H       
  89 H89           13.7208     1.5067    -0.9270 H       
  90 H90           14.4014     2.2289    -2.7599 H       
  91 H91           14.3871     0.4558    -2.6043 H       
  92 H92           14.4827     1.2071    -4.2151 H       
  93 H93           10.7729     0.0354     2.4432 H       
  94 H94            8.7202     3.4848     0.9398 H       
  95 H95            7.4993     3.6741     3.0667 H       
  96 H96            9.5409     0.2372     4.5626 H       
@<TRIPOS>BOND
   1    1    2 ar
   2    1    7 1
   3    1    6 ar
   4    2    3 ar
   5    2    9 1
   6    3    4 ar
   7    3   54 1
   8    4    5 ar
   9    4   55 1
  10    5    6 ar
  11    5   17 1
  12    6   56 1
  13    7    8 1
  14    7   10 1
  15    8    9 2
  16    8   23 1
  17    9   25 1
  18   10   11 1
  19   10   57 1
  20   10   58 1
  21   11   12 am
  22   11   13 2
  23   12   14 1
  24   12   59 1
  25   14   15 1
  26   14   60 1
  27   14   61 1
  28   15   16 1
  29   15   62 1
  30   15   63 1
  31   16   20 2
  32   16   64 1
  33   17   18 2
  34   17   19 am
  35   19   22 1
  36   19   65 1
  37   20   21 1
  38   20   66 1
  39   21   22 1
  40   21   67 1
  41   21   68 1
  42   22   69 1
  43   22   70 1
  44   23   24 ar
  45   23   34 ar
  46   24   31 ar
  47   24   71 1
  48   25   26 1
  49   25   30 1
  50   25   72 1
  51   26   27 1
  52   26   73 1
  53   26   74 1
  54   27   28 1
  55   27   75 1
  56   27   76 1
  57   28   29 1
  58   28   77 1
  59   28   78 1
  60   29   30 1
  61   29   79 1
  62   29   80 1
  63   30   81 1
  64   30   82 1
  65   31   32 ar
  66   31   83 1
  67   32   33 ar
  68   32   35 ar
  69   33   34 ar
  70   33   38 ar
  71   34   84 1
  72   35   36 ar
  73   36   37 ar
  74   36   39 1
  75   37   38 ar
  76   37   85 1
  77   38   86 1
  78   39   40 ar
  79   39   41 ar
  80   40   44 ar
  81   40   87 1
  82   41   42 ar
  83   41   47 1
  84   42   43 ar
  85   42   88 1
  86   43   44 ar
  87   43   89 1
  88   44   45 1
  89   45   46 1
  90   46   90 1
  91   46   91 1
  92   46   92 1
  93   47   48 ar
  94   47   49 ar
  95   48   52 ar
  96   48   93 1
  97   49   50 ar
  98   49   94 1
  99   50   51 ar
 100   50   95 1
 101   51   52 ar
 102   51   53 1
 103   52   96 1

#	End of record

