#	Name: ASD00310152
#	Creating user name:	WinNT
#	Creation time:	15. 06. 2019 18:33

#	Modifying user name:	WinNT
#	Modification time:	15. 06. 2019 18:33

#	Program:	/corina/corina34_cracker 3.40 0067  02.08.2006

@<TRIPOS>MOLECULE
ASD00310152
  54   56    0    0    0
SMALL
NO_CHARGES


@<TRIPOS>ATOM
   1 N1            -0.0169     1.3951     0.0097 N.2     
   2 N2             0.0021    -0.0041     0.0020 N.pl3   
   3 C3             1.2678    -0.4444    -0.0124 C.2     
   4 C4             2.1014     0.6597    -0.0145 C.ar    
   5 C5             3.4985     0.8465    -0.0275 C.ar    
   6 C6             4.0087     2.1262    -0.0261 C.ar    
   7 C7             3.1623     3.2505    -0.0115 C.ar    
   8 C8             1.8147     3.1261     0.0013 C.ar    
   9 C9             1.2259     1.8421     0.0002 C.ar    
  10 C10           -1.1861    -0.8610     0.0092 C.3     
  11 O11           -0.7845    -2.2323    -0.0016 O.3     
  12 C12           -1.8739    -3.1571     0.0043 C.3     
  13 C13           -1.3293    -4.5869    -0.0081 C.3     
  14 Si14          -2.7495    -5.7925    -0.0004 Si      
  15 C15           -3.8059    -5.5172    -1.5101 C.3     
  16 C16           -2.0863    -7.5334    -0.0156 C.3     
  17 C17           -3.7765    -5.5325     1.5320 C.3     
  18 C18            3.7724     4.6285    -0.0097 C.3     
  19 C19            5.4785     2.3228    -0.0398 C.ar    
  20 C20            6.1155     2.9162     1.0520 C.ar    
  21 C21            7.4846     3.0974     1.0348 C.ar    
  22 C22            8.2257     2.6906    -0.0661 C.ar    
  23 C23            7.5944     2.1005    -1.1525 C.ar    
  24 C24            6.2281     1.9106    -1.1399 C.ar    
  25 O25            9.5724     2.8710    -0.0806 O.3     
  26 C26           10.2736     2.4293    -1.2448 C.3     
  27 F27            5.3938     3.3128     2.1230 F       
  28 H28            1.5814    -1.4779    -0.0210 H       
  29 H29            4.1624    -0.0052    -0.0381 H       
  30 H30            1.1904     4.0073     0.0124 H       
  31 H31           -1.7727    -0.6612     0.9059 H       
  32 H32           -1.7900    -0.6523    -0.8739 H       
  33 H33           -2.4748    -3.0050     0.9009 H       
  34 H34           -2.4920    -2.9961    -0.8789 H       
  35 H35           -0.7284    -4.7390    -0.9047 H       
  36 H36           -0.7112    -4.7479     0.8751 H       
  37 H37           -3.2050    -5.6694    -2.4067 H       
  38 H38           -4.6369    -6.2226    -1.5056 H       
  39 H39           -4.1939    -4.4987    -1.5012 H       
  40 H40           -1.4683    -7.6945     0.8677 H       
  41 H41           -2.9173    -8.2388    -0.0111 H       
  42 H42           -1.4855    -7.6855    -0.9122 H       
  43 H43           -4.1645    -4.5139     1.5409 H       
  44 H44           -4.6075    -6.2379     1.5365 H       
  45 H45           -3.1584    -5.6935     2.4153 H       
  46 H46            3.9094     4.9665    -1.0369 H       
  47 H47            3.1107     5.3181     0.5145 H       
  48 H48            4.7382     4.5976     0.4946 H       
  49 H49            7.9788     3.5562     1.8784 H       
  50 H50            8.1745     1.7857    -2.0074 H       
  51 H51            5.7392     1.4473    -1.9841 H       
  52 H52           10.1200     1.3583    -1.3770 H       
  53 H53            9.8975     2.9609    -2.1189 H       
  54 H54           11.3380     2.6319    -1.1266 H       
@<TRIPOS>BOND
   1    1    2 1
   2    1    9 2
   3    2    3 1
   4    2   10 1
   5    3    4 2
   6    3   28 1
   7    4    5 ar
   8    4    9 ar
   9    5    6 ar
  10    5   29 1
  11    6    7 ar
  12    6   19 1
  13    7    8 ar
  14    7   18 1
  15    8    9 ar
  16    8   30 1
  17   10   11 1
  18   10   31 1
  19   10   32 1
  20   11   12 1
  21   12   13 1
  22   12   33 1
  23   12   34 1
  24   13   14 1
  25   13   35 1
  26   13   36 1
  27   14   15 1
  28   14   16 1
  29   14   17 1
  30   15   37 1
  31   15   38 1
  32   15   39 1
  33   16   40 1
  34   16   41 1
  35   16   42 1
  36   17   43 1
  37   17   44 1
  38   17   45 1
  39   18   46 1
  40   18   47 1
  41   18   48 1
  42   19   20 ar
  43   19   24 ar
  44   20   21 ar
  45   20   27 1
  46   21   22 ar
  47   21   49 1
  48   22   23 ar
  49   22   25 1
  50   23   24 ar
  51   23   50 1
  52   24   51 1
  53   25   26 1
  54   26   52 1
  55   26   53 1
  56   26   54 1

#	End of record

