#	Name: ASD09720022
#	Creating user name:	WinNT
#	Creation time:	15. 06. 2019 21:22

#	Modifying user name:	WinNT
#	Modification time:	15. 06. 2019 21:22

#	Program:	/corina/corina34_cracker 3.40 0067  02.08.2006

@<TRIPOS>MOLECULE
ASD09720022
  37   39    0    0    0
SMALL
NO_CHARGES


@<TRIPOS>ATOM
   1 C1            -0.2511     0.3312     0.8694 C.2     
   2 S2             0.1834     1.1168    -0.6387 S.3     
   3 C3            -1.4300     1.5667    -0.9541 C.2     
   4 C4            -2.2543     1.1398     0.0386 C.2     
   5 C5            -1.5601     0.4231     1.0830 C.2     
   6 Cl6            0.8709    -0.4619     1.9305 Cl      
   7 Cl7           -1.9502     2.4514    -2.3542 Cl      
   8 C8            -3.7074     1.3798     0.0464 C.2     
   9 N9            -4.5290     0.3828    -0.0486 N.2     
  10 C10           -4.2383     2.7851     0.1650 C.3     
  11 O11           -4.0331    -0.9244    -0.2734 O.3     
  12 S12           -6.0519     2.7500     0.1455 S.3     
  13 C13           -6.4829     4.4522     0.2911 C.ar    
  14 C14           -5.4896     5.4173     0.3849 C.ar    
  15 C15           -5.8300     6.7513     0.4985 C.ar    
  16 C16           -7.1599     7.1339     0.5195 C.ar    
  17 C17           -8.1589     6.1855     0.4275 C.ar    
  18 C18           -7.8294     4.8381     0.3068 C.ar    
  19 C19           -8.8987     3.8156     0.2072 C.ar    
  20 C20           -9.9456     3.8062     1.1275 C.ar    
  21 C21          -10.9380     2.8522     1.0299 C.ar    
  22 C22          -10.8949     1.9061     0.0217 C.ar    
  23 C23           -9.8584     1.9105    -0.8944 C.ar    
  24 C24           -8.8638     2.8636    -0.8104 C.ar    
  25 H25           -2.0525     0.0106     1.9512 H       
  26 H26           -3.8936     3.2260     1.1003 H       
  27 H27           -3.8774     3.3818    -0.6727 H       
  28 H28           -4.7210    -1.6017    -0.3297 H       
  29 H29           -4.4500     5.1251     0.3694 H       
  30 H30           -5.0545     7.4993     0.5716 H       
  31 H31           -7.4173     8.1790     0.6086 H       
  32 H32           -9.1953     6.4888     0.4452 H       
  33 H33           -9.9799     4.5439     1.9155 H       
  34 H34          -11.7497     2.8440     1.7424 H       
  35 H35          -11.6733     1.1609    -0.0504 H       
  36 H36           -9.8298     1.1695    -1.6795 H       
  37 H37           -8.0574     2.8689    -1.5288 H       
@<TRIPOS>BOND
   1    1    2 1
   2    1    6 1
   3    1    5 2
   4    2    3 1
   5    3    4 2
   6    3    7 1
   7    4    5 1
   8    4    8 1
   9    5   25 1
  10    8    9 2
  11    8   10 1
  12    9   11 1
  13   10   12 1
  14   10   26 1
  15   10   27 1
  16   11   28 1
  17   12   13 1
  18   13   14 ar
  19   13   18 ar
  20   14   15 ar
  21   14   29 1
  22   15   16 ar
  23   15   30 1
  24   16   17 ar
  25   16   31 1
  26   17   18 ar
  27   17   32 1
  28   18   19 1
  29   19   20 ar
  30   19   24 ar
  31   20   21 ar
  32   20   33 1
  33   21   22 ar
  34   21   34 1
  35   22   23 ar
  36   22   35 1
  37   23   24 ar
  38   23   36 1
  39   24   37 1

#	End of record

