#	Name: ASD04840098
#	Creating user name:	WinNT
#	Creation time:	15. 06. 2019 20:52

#	Modifying user name:	WinNT
#	Modification time:	15. 06. 2019 20:52

#	Program:	/corina/corina34_cracker 3.40 0067  02.08.2006

@<TRIPOS>MOLECULE
ASD04840098
  53   56    0    0    0
SMALL
NO_CHARGES


@<TRIPOS>ATOM
   1 C1            -0.0172     1.4162     0.0098 C.ar    
   2 C2             0.0021    -0.0041     0.0020 C.ar    
   3 N3             2.3586     0.1191    -0.0198 N.ar    
   4 C4             2.2873     1.4300    -0.0121 C.ar    
   5 N5             1.1332     2.0725     0.0024 N.ar    
   6 C6            -1.0883    -0.9558     0.0073 C.2     
   7 C7            -0.7095    -2.2339    -0.0032 C.2     
   8 S8             1.0380    -2.3780    -0.0207 S.3     
   9 C9             1.2510    -0.6335    -0.0133 C.ar    
  10 C10           -1.6419    -3.3813     0.0000 C.ar    
  11 C11           -1.1473    -4.6863    -0.0118 C.ar    
  12 C12           -2.0228    -5.7525    -0.0083 C.ar    
  13 C13           -3.3883    -5.5303     0.0069 C.ar    
  14 C14           -3.8851    -4.2390     0.0187 C.ar    
  15 C15           -3.0204    -3.1640     0.0207 C.ar    
  16 C16           -4.3388    -6.6998     0.0102 C.3     
  17 N17           -1.2176     2.1025     0.0193 N.pl3   
  18 C18           -1.2237     3.5675     0.0273 C.3     
  19 C19           -1.1088     4.0780    -1.3859 C.2     
  20 N20           -1.0940     5.4045    -1.6241 N.am    
  21 O21           -1.0295     3.2953    -2.3089 O.2     
  22 P22           -0.9689     5.9601    -3.1621 P.3     
  23 O23            0.4060     5.4327    -3.8130 O.3     
  24 O24           -2.2142     5.4229    -4.0297 O.3     
  25 O25           -0.9751     7.4401    -3.1540 O.2     
  26 C26           -2.5303     4.0686     0.6459 C.3     
  27 C27           -2.5881     3.6618     2.0958 C.ar    
  28 C28           -3.2013     2.0760     3.7815 C.ar    
  29 C29           -3.1483     2.4492     2.4515 C.ar    
  30 C30           -2.0759     4.4987     3.0694 C.ar    
  31 C31           -2.1290     4.1256     4.3994 C.ar    
  32 C32           -2.6947     2.9157     4.7557 C.ar    
  33 H33            3.2031     2.0024    -0.0174 H       
  34 H34           -2.1254    -0.6547     0.0192 H       
  35 H35           -0.0816    -4.8611    -0.0240 H       
  36 H36           -1.6414    -6.7629    -0.0178 H       
  37 H37           -4.9521    -4.0723     0.0302 H       
  38 H38           -3.4094    -2.1566     0.0340 H       
  39 H39           -4.5574    -6.9874     1.0386 H       
  40 H40           -5.2638    -6.4176    -0.4926 H       
  41 H41           -3.8826    -7.5402    -0.5130 H       
  42 H42           -2.0556     1.6140     0.0206 H       
  43 H43           -0.3807     3.9312     0.6147 H       
  44 H44           -1.1574     6.0305    -0.8860 H       
  45 H45            0.4790     4.4692    -3.8509 H       
  46 H46           -2.2054     5.7133    -4.9521 H       
  47 H47           -2.5743     5.1552     0.5714 H       
  48 H48           -3.3753     3.6334     0.1124 H       
  49 H49           -3.6393     1.1287     4.0595 H       
  50 H50           -3.5448     1.7935     1.6905 H       
  51 H51           -1.6339     5.4440     2.7910 H       
  52 H52           -1.7282     4.7791     5.1601 H       
  53 H53           -2.7361     2.6241     5.7948 H       
@<TRIPOS>BOND
   1    1    2 ar
   2    1    5 ar
   3    1   17 1
   4    2    9 ar
   5    2    6 1
   6    3    4 ar
   7    3    9 ar
   8    4    5 ar
   9    4   33 1
  10    6    7 2
  11    6   34 1
  12    7    8 1
  13    7   10 1
  14    8    9 1
  15   10   11 ar
  16   10   15 ar
  17   11   12 ar
  18   11   35 1
  19   12   13 ar
  20   12   36 1
  21   13   14 ar
  22   13   16 1
  23   14   15 ar
  24   14   37 1
  25   15   38 1
  26   16   39 1
  27   16   40 1
  28   16   41 1
  29   17   18 1
  30   17   42 1
  31   18   19 1
  32   18   26 1
  33   18   43 1
  34   19   20 am
  35   19   21 2
  36   20   22 1
  37   20   44 1
  38   22   23 1
  39   22   24 1
  40   22   25 2
  41   23   45 1
  42   24   46 1
  43   26   27 1
  44   26   47 1
  45   26   48 1
  46   27   30 ar
  47   27   29 ar
  48   28   29 ar
  49   28   32 ar
  50   28   49 1
  51   29   50 1
  52   30   31 ar
  53   30   51 1
  54   31   32 ar
  55   31   52 1
  56   32   53 1

#	End of record

