#	Name: ASD01140138
#	Creating user name:	WinNT
#	Creation time:	15. 06. 2019 19:00

#	Modifying user name:	WinNT
#	Modification time:	15. 06. 2019 19:00

#	Program:	/corina/corina34_cracker 3.40 0067  02.08.2006

@<TRIPOS>MOLECULE
ASD01140138
  29   30    0    0    0
SMALL
NO_CHARGES


@<TRIPOS>ATOM
   1 C1            -0.0166     1.3762     0.0096 C.ar    
   2 C2             0.0021    -0.0041     0.0020 C.ar    
   3 C3             1.2194    -0.6816    -0.0132 C.ar    
   4 C4             2.4121     0.0392    -0.0207 C.ar    
   5 C5             2.3816     1.4188    -0.0130 C.ar    
   6 C6             1.1700     2.0864     0.0021 C.ar    
   7 C7             1.2458    -2.1652    -0.0210 C.ar    
   8 C8             2.4673    -2.8408    -0.0362 C.ar    
   9 C9             2.4994    -4.2189    -0.0430 C.ar    
  10 C10            1.3171    -4.9451    -0.0347 C.ar    
  11 C11            0.0843    -4.2756    -0.0194 C.ar    
  12 C12            0.0548    -2.8807    -0.0072 C.ar    
  13 O13            1.3531    -6.3008    -0.0419 O.3     
  14 C14           -1.1746    -5.0426    -0.0110 C.2     
  15 O15           -2.3571    -4.3967     0.0037 O.3     
  16 O16           -1.1460    -6.2574    -0.0174 O.2     
  17 C17            3.6706     2.1996    -0.0206 C.3     
  18 F18            4.0573     2.4484    -1.3419 F       
  19 F19            3.4836     3.4147     0.6472 F       
  20 F20            4.6672     1.4607     0.6258 F       
  21 H21           -0.9597     1.9024     0.0169 H       
  22 H22           -0.9252    -0.5577     0.0082 H       
  23 H23            3.3585    -0.4809    -0.0322 H       
  24 H24            1.1508     3.1662     0.0077 H       
  25 H25            3.3911    -2.2814    -0.0431 H       
  26 H26            3.4480    -4.7351    -0.0552 H       
  27 H27           -0.8906    -2.3588     0.0047 H       
  28 H28            1.3725    -6.6984     0.8394 H       
  29 H29           -3.1554    -4.9424     0.0088 H       
@<TRIPOS>BOND
   1    1    2 ar
   2    1    6 ar
   3    1   21 1
   4    2    3 ar
   5    2   22 1
   6    3    4 ar
   7    3    7 1
   8    4    5 ar
   9    4   23 1
  10    5    6 ar
  11    5   17 1
  12    6   24 1
  13    7    8 ar
  14    7   12 ar
  15    8    9 ar
  16    8   25 1
  17    9   10 ar
  18    9   26 1
  19   10   11 ar
  20   10   13 1
  21   11   12 ar
  22   11   14 1
  23   12   27 1
  24   13   28 1
  25   14   15 1
  26   14   16 2
  27   15   29 1
  28   17   18 1
  29   17   19 1
  30   17   20 1

#	End of record

