#	Name: ASD05740015
#	Creating user name:	WinNT
#	Creation time:	15. 06. 2019 21:02

#	Modifying user name:	WinNT
#	Modification time:	15. 06. 2019 21:02

#	Program:	/corina/corina34_cracker 3.40 0067  02.08.2006

@<TRIPOS>MOLECULE
ASD05740015
  50   53    0    0    0
SMALL
NO_CHARGES


@<TRIPOS>ATOM
   1 C1            -0.1581     1.4891     0.7901 C.2     
   2 C2             0.8072     3.5975     0.6344 C.ar    
   3 N3            -0.4155     4.1099     0.5785 N.ar    
   4 C4            -0.6282     5.4050     0.4732 C.ar    
   5 C5             0.4511     6.2893     0.4163 C.ar    
   6 C6             1.7650     5.7795     0.4732 C.ar    
   7 C7             1.9325     4.4070     0.5898 C.ar    
   8 C8             0.2565     7.7348     0.2984 C.2     
   9 C9             1.3601     8.5262     0.2488 C.2     
  10 C10            2.6446     7.9470     0.3109 C.2     
  11 O11            2.8167     6.6189     0.4196 O.3     
  12 C12            1.2116    10.0209     0.1271 C.3     
  13 C13            1.2676    10.6446     1.4978 C.ar    
  14 C14            0.0964    10.9155     2.1822 C.ar    
  15 O15            3.6236     8.6698     0.2653 O.2     
  16 C16            2.5391    11.5160     3.3382 C.ar    
  17 C17            1.3610    11.7915     4.0182 C.ar    
  18 C18            0.1433    11.4875     3.4398 C.ar    
  19 O19            0.9595     2.2547     0.7431 O.3     
  20 N20            3.7729    11.8225     3.9209 N.am    
  21 S21            3.9795    11.6600     5.5559 S.o2    
  22 O22            5.3580    11.9353     5.7640 O.2     
  23 O23            2.9734    12.4897     6.1204 O.2     
  24 C24           -1.1271     8.3284     0.2335 C.3     
  25 N25           -1.3703     1.9419     0.7333 N.2     
  26 S26           -0.1726    -0.2151     0.9254 S.3     
  27 C27           -1.9342    -0.2124     0.9022 C.2     
  28 C28           -2.3442     1.0520     0.7875 C.2     
  29 C29            3.6224     9.9124     5.8859 C.3     
  30 C30            3.7811     9.6330     7.3817 C.3     
  31 C31            2.4895    10.9403     2.0727 C.ar    
  32 F32            3.6336    10.6702     1.4068 F       
  33 H33           -1.6386     5.7839     0.4305 H       
  34 H34            2.9217     3.9761     0.6369 H       
  35 H35            2.0208    10.4176    -0.4860 H       
  36 H36            0.2544    10.2541    -0.3394 H       
  37 H37           -0.8570    10.6799     1.7328 H       
  38 H38            1.3959    12.2427     4.9988 H       
  39 H39           -0.7733    11.6976     3.9710 H       
  40 H40            4.5076    12.1302     3.3674 H       
  41 H41           -1.8677     7.5305     0.2878 H       
  42 H42           -1.2684     9.0129     1.0699 H       
  43 H43           -1.2459     8.8712    -0.7043 H       
  44 H44           -2.5708    -1.0827     0.9628 H       
  45 H45           -3.3881     1.3261     0.7502 H       
  46 H46            2.6008     9.6863     5.5803 H       
  47 H47            4.3165     9.2874     5.3239 H       
  48 H48            4.8026     9.8591     7.6873 H       
  49 H49            3.0870    10.2581     7.9437 H       
  50 H50            3.5665     8.5829     7.5800 H       
@<TRIPOS>BOND
   1    1   26 1
   2    1   19 1
   3    1   25 2
   4    2    3 ar
   5    2   19 1
   6    2    7 ar
   7    3    4 ar
   8    4    5 ar
   9    4   33 1
  10    5    6 ar
  11    5    8 1
  12    6    7 ar
  13    6   11 1
  14    7   34 1
  15    8    9 2
  16    8   24 1
  17    9   10 1
  18    9   12 1
  19   10   11 1
  20   10   15 2
  21   12   13 1
  22   12   35 1
  23   12   36 1
  24   13   14 ar
  25   13   31 ar
  26   14   18 ar
  27   14   37 1
  28   16   17 ar
  29   16   20 1
  30   16   31 ar
  31   17   18 ar
  32   17   38 1
  33   18   39 1
  34   20   21 am
  35   20   40 1
  36   21   22 2
  37   21   23 2
  38   21   29 1
  39   24   41 1
  40   24   42 1
  41   24   43 1
  42   25   28 1
  43   26   27 1
  44   27   28 2
  45   27   44 1
  46   28   45 1
  47   29   30 1
  48   29   46 1
  49   29   47 1
  50   30   48 1
  51   30   49 1
  52   30   50 1
  53   31   32 1

#	End of record

