#	Name: ASD03091347
#	Creating user name:	WinNT
#	Creation time:	15. 06. 2019 20:30

#	Modifying user name:	WinNT
#	Modification time:	15. 06. 2019 20:30

#	Program:	/corina/corina34_cracker 3.40 0067  02.08.2006

@<TRIPOS>MOLECULE
ASD03091347
  26   28    0    0    0
SMALL
NO_CHARGES


@<TRIPOS>ATOM
   1 N1            -0.0181     1.4871     0.0102 N.pl3   
   2 C2             0.0021    -0.0041     0.0020 C.3     
   3 C3             1.4992    -0.3460    -0.0141 C.3     
   4 N4             2.1604     0.9589    -0.0134 N.2     
   5 C5            -0.5066     3.9257     0.0310 C.3     
   6 C6            -1.0672     2.5066     0.0311 C.3     
   7 C7             1.2706     1.9238     0.0003 C.2     
   8 S8             1.2952     3.7006     0.0096 S.3     
   9 C9             1.8755    -1.1296     1.2170 C.ar    
  10 C10            2.0091    -2.5037     1.1476 C.ar    
  11 C11            2.3542    -3.2224     2.2769 C.ar    
  12 C12            2.5661    -2.5670     3.4754 C.ar    
  13 C13            2.4333    -1.1928     3.5445 C.ar    
  14 C14            2.0925    -0.4736     2.4142 C.ar    
  15 H15           -0.4716    -0.3988     0.9009 H       
  16 H16           -0.4887    -0.3892    -0.8918 H       
  17 H17            1.7543    -0.9031    -0.9156 H       
  18 H18           -0.8363     4.4652    -0.8569 H       
  19 H19           -0.8106     4.4551     0.9340 H       
  20 H20           -1.7010     2.3780    -0.8464 H       
  21 H21           -1.6755     2.3680     0.9249 H       
  22 H22            1.8436    -3.0158     0.2112 H       
  23 H23            2.4580    -4.2961     2.2228 H       
  24 H24            2.8350    -3.1286     4.3578 H       
  25 H25            2.5985    -0.6808     4.4810 H       
  26 H26            1.9923     0.6004     2.4674 H       
@<TRIPOS>BOND
   1    1    2 1
   2    1    7 1
   3    1    6 1
   4    2    3 1
   5    2   15 1
   6    2   16 1
   7    3    4 1
   8    3    9 1
   9    3   17 1
  10    4    7 2
  11    5    6 1
  12    5    8 1
  13    5   18 1
  14    5   19 1
  15    6   20 1
  16    6   21 1
  17    7    8 1
  18    9   10 ar
  19    9   14 ar
  20   10   11 ar
  21   10   22 1
  22   11   12 ar
  23   11   23 1
  24   12   13 ar
  25   12   24 1
  26   13   14 ar
  27   13   25 1
  28   14   26 1

#	End of record

