#	Name: ASD09750007
#	Creating user name:	WinNT
#	Creation time:	15. 06. 2019 21:23

#	Modifying user name:	WinNT
#	Modification time:	15. 06. 2019 21:23

#	Program:	/corina/corina34_cracker 3.40 0067  02.08.2006

@<TRIPOS>MOLECULE
ASD09750007
  83   88    0    0    0
SMALL
NO_CHARGES


@<TRIPOS>ATOM
   1 C1            -0.0079     1.4076    -0.1134 C.ar    
   2 C2            -0.0079     0.0183     0.1172 C.ar    
   3 C3            -1.2103    -0.6700     0.2336 C.ar    
   4 C4            -2.3959    -0.0029     0.1250 C.ar    
   5 C5            -2.4152     1.3794    -0.1044 C.ar    
   6 C6            -1.2228     2.0865    -0.2194 C.ar    
   7 N7             1.2869     1.8029    -0.1806 N.2     
   8 C8             2.0717     0.7664    -0.0095 C.2     
   9 N9             1.3159    -0.3612     0.1785 N.pl3   
  10 C10            3.5469     0.8079    -0.0183 C.ar    
  11 C11            4.2415     1.7588     0.7697 C.ar    
  12 C12            5.6572     1.7779     0.7438 C.ar    
  13 C13            6.3478     0.8560    -0.0615 C.ar    
  14 C14            5.6575    -0.0487    -0.8109 C.ar    
  15 C15            4.2687    -0.0868    -0.7931 C.ar    
  16 C16            3.5539     2.6793     1.5725 C.ar    
  17 C17            4.2540     3.5801     2.3172 C.ar    
  18 C18            5.6467     3.6007     2.2932 C.ar    
  19 C19            6.3468     2.7212     1.5255 C.ar    
  20 C20            1.8211    -1.7178     0.4038 C.3     
  21 C21            2.1187    -1.9105     1.8922 C.3     
  22 C22            2.6383    -3.3060     2.1239 C.ar    
  23 C23            3.9959    -3.5564     2.0563 C.ar    
  24 C24            4.4776    -4.8352     2.2681 C.ar    
  25 C25            3.5990    -5.8685     2.5494 C.ar    
  26 C26            2.2318    -5.6163     2.6180 C.ar    
  27 C27            1.7563    -4.3320     2.4094 C.ar    
  28 O28            4.0711    -7.1268     2.7576 O.3     
  29 C29            5.4855    -7.3116     2.6710 C.3     
  30 C30           -0.0235    -6.2951     2.9479 C.3     
  31 O31            1.3652    -6.6276     2.8933 O.3     
  32 C32           -3.7055     2.0884    -0.2202 C.2     
  33 O33           -3.7245     3.2876    -0.4192 O.2     
  34 N34           -4.8621     1.4060    -0.1053 N.am    
  35 C35           -6.1421     2.1093    -0.2202 C.3     
  36 C36           -7.2893     1.1110    -0.0529 C.3     
  37 C37           -8.6060     1.8344    -0.1711 C.ar    
  38 C38           -9.2103     1.9695    -1.4063 C.ar    
  39 C39          -10.4226     2.6357    -1.5178 C.ar    
  40 C40          -11.0275     3.1655    -0.3885 C.ar    
  41 C41          -10.4194     3.0282     0.8498 C.ar    
  42 C42           -9.2097     2.3567     0.9568 C.ar    
  43 O43          -11.0098     3.5468     1.9585 O.3     
  44 C44          -12.2564     4.2209     1.7747 C.3     
  45 O45          -11.0160     2.7690    -2.7331 O.3     
  46 C46          -12.2626     3.4664    -2.7733 C.3     
  47 H47           -1.2061    -1.7355     0.4101 H       
  48 H48           -3.3259    -0.5443     0.2162 H       
  49 H49           -1.2369     3.1519    -0.3958 H       
  50 H50            7.4275     0.8649    -0.0866 H       
  51 H51            6.1995    -0.7520    -1.4257 H       
  52 H52            3.7461    -0.8143    -1.3965 H       
  53 H53            2.4743     2.6748     1.6003 H       
  54 H54            3.7217     4.2886     2.9346 H       
  55 H55            6.1787     4.3248     2.8924 H       
  56 H56            7.4265     2.7486     1.5161 H       
  57 H57            1.0709    -2.4422     0.0865 H       
  58 H58            2.7350    -1.8654    -0.1716 H       
  59 H59            2.8688    -1.1862     2.2095 H       
  60 H60            1.2048    -1.7629     2.4676 H       
  61 H61            4.6819    -2.7516     1.8371 H       
  62 H62            5.5388    -5.0283     2.2140 H       
  63 H63            0.6959    -4.1337     2.4621 H       
  64 H64            5.8283    -7.0312     1.6751 H       
  65 H65            5.9797    -6.6866     3.4147 H       
  66 H66            5.7272    -8.3580     2.8573 H       
  67 H67           -0.3389    -5.8930     1.9851 H       
  68 H68           -0.6027    -7.1901     3.1752 H       
  69 H69           -0.1881    -5.5486     3.7249 H       
  70 H70           -4.8469     0.4492     0.0535 H       
  71 H71           -6.2083     2.8723     0.5554 H       
  72 H72           -6.2108     2.5808    -1.2005 H       
  73 H73           -7.2231     0.3480    -0.8285 H       
  74 H74           -7.2206     0.6394     0.9275 H       
  75 H75           -8.7387     1.5566    -2.2858 H       
  76 H76          -11.9708     3.6845    -0.4733 H       
  77 H77           -8.7356     2.2495     1.9212 H       
  78 H78          -12.1178     5.0624     1.0959 H       
  79 H79          -12.9846     3.5289     1.3516 H       
  80 H80          -12.6176     4.5854     2.7363 H       
  81 H81          -12.9893     2.9480    -2.1478 H       
  82 H82          -12.1230     4.4819    -2.4026 H       
  83 H83          -12.6264     3.5013    -3.8002 H       
@<TRIPOS>BOND
   1    1    2 ar
   2    1    7 1
   3    1    6 ar
   4    2    3 ar
   5    2    9 1
   6    3    4 ar
   7    3   47 1
   8    4    5 ar
   9    4   48 1
  10    5    6 ar
  11    5   32 1
  12    6   49 1
  13    7    8 2
  14    8    9 1
  15    8   10 1
  16    9   20 1
  17   10   11 ar
  18   10   15 ar
  19   11   12 ar
  20   11   16 ar
  21   12   13 ar
  22   12   19 ar
  23   13   14 ar
  24   13   50 1
  25   14   15 ar
  26   14   51 1
  27   15   52 1
  28   16   17 ar
  29   16   53 1
  30   17   18 ar
  31   17   54 1
  32   18   19 ar
  33   18   55 1
  34   19   56 1
  35   20   21 1
  36   20   57 1
  37   20   58 1
  38   21   22 1
  39   21   59 1
  40   21   60 1
  41   22   23 ar
  42   22   27 ar
  43   23   24 ar
  44   23   61 1
  45   24   25 ar
  46   24   62 1
  47   25   26 ar
  48   25   28 1
  49   26   27 ar
  50   26   31 1
  51   27   63 1
  52   28   29 1
  53   29   64 1
  54   29   65 1
  55   29   66 1
  56   30   31 1
  57   30   67 1
  58   30   68 1
  59   30   69 1
  60   32   33 2
  61   32   34 am
  62   34   35 1
  63   34   70 1
  64   35   36 1
  65   35   71 1
  66   35   72 1
  67   36   37 1
  68   36   73 1
  69   36   74 1
  70   37   38 ar
  71   37   42 ar
  72   38   39 ar
  73   38   75 1
  74   39   40 ar
  75   39   45 1
  76   40   41 ar
  77   40   76 1
  78   41   42 ar
  79   41   43 1
  80   42   77 1
  81   43   44 1
  82   44   78 1
  83   44   79 1
  84   44   80 1
  85   45   46 1
  86   46   81 1
  87   46   82 1
  88   46   83 1

#	End of record

