#	Name: ASD03330910
#	Creating user name:	WinNT
#	Creation time:	15. 06. 2019 20:38

#	Modifying user name:	WinNT
#	Modification time:	15. 06. 2019 20:38

#	Program:	/corina/corina34_cracker 3.40 0067  02.08.2006

@<TRIPOS>MOLECULE
ASD03330910
  57   59    0    0    0
SMALL
NO_CHARGES


@<TRIPOS>ATOM
   1 N1             0.4411     0.9373    -0.2640 N.pl3   
   2 C2             0.3276    -0.4179    -0.2054 C.2     
   3 C3             1.4749    -1.3941    -0.1845 C.3     
   4 N4             2.4710    -0.9464     0.8014 N.3     
   5 C5             3.4467    -0.0388     0.1950 C.3     
   6 C6             2.7976     0.8150    -0.8904 C.3     
   7 C7             1.6998     1.6879    -0.2762 C.3     
   8 C8            -0.8243     1.4524    -0.2962 C.2     
   9 N9            -1.6823     0.4571    -0.2416 N.2     
  10 C10           -1.0017    -0.7094    -0.1820 C.2     
  11 C11           -1.5936    -2.0565    -0.1060 C.2     
  12 O12           -0.8733    -3.0353    -0.0576 O.2     
  13 N13           -2.9331    -2.2041    -0.0903 N.am    
  14 C14            3.1392    -2.0925     1.4323 C.3     
  15 C15           -4.9061    -3.5182    -0.6094 C.2     
  16 C16           -3.5216    -3.5435    -0.0148 C.3     
  17 C17           -3.6030    -3.9831     1.4485 C.3     
  18 C18           -4.3812    -2.9393     2.2520 C.3     
  19 O19           -5.5595    -2.4968    -0.5815 O.2     
  20 N20           -5.4183    -4.6306    -1.1722 N.am    
  21 C21           -6.8027    -4.6383    -1.6513 C.3     
  22 C22           -4.3190    -5.3323     1.5366 C.3     
  23 C23           -2.1901    -4.1172     2.0200 C.3     
  24 C24           -1.1689     2.8806    -0.3783 C.2     
  25 C25           -2.3865     3.3722    -0.6950 C.2     
  26 C26           -2.4666     4.7474    -0.7075 C.2     
  27 C27           -1.3286     5.3846    -0.4047 C.2     
  28 S28           -0.0610     4.2119    -0.0718 S.3     
  29 Cl29          -1.1351     7.1087    -0.3437 Cl      
  30 H30            1.1074    -2.3824     0.0919 H       
  31 H31            1.9340    -1.4381    -1.1721 H       
  32 H32            3.8566     0.6134     0.9663 H       
  33 H33            4.2547    -0.6235    -0.2447 H       
  34 H34            3.5529     1.4526    -1.3500 H       
  35 H35            2.3619     0.1658    -1.6500 H       
  36 H36            1.5785     2.5932    -0.8711 H       
  37 H37            1.9748     1.9550     0.7441 H       
  38 H38           -3.5076    -1.4234    -0.1289 H       
  39 H39            3.5851    -2.7221     0.6623 H       
  40 H40            3.9185    -1.7336     2.1046 H       
  41 H41            2.4097    -2.6720     1.9981 H       
  42 H42           -2.9001    -4.2453    -0.5709 H       
  43 H43           -5.3878    -2.8437     1.8448 H       
  44 H44           -4.4392    -3.2524     3.2945 H       
  45 H45           -3.8711    -1.9780     2.1892 H       
  46 H46           -4.8702    -5.4261    -1.2601 H       
  47 H47           -7.4761    -4.4299    -0.8199 H       
  48 H48           -6.9258    -3.8742    -2.4189 H       
  49 H49           -7.0363    -5.6165    -2.0716 H       
  50 H50           -3.7388    -6.0869     1.0055 H       
  51 H51           -4.4209    -5.6219     2.5825 H       
  52 H52           -5.3074    -5.2493     1.0846 H       
  53 H53           -1.6800    -3.1560     1.9572 H       
  54 H54           -2.2481    -4.4304     3.0625 H       
  55 H55           -1.6357    -4.8608     1.4476 H       
  56 H56           -3.2304     2.7373    -0.9210 H       
  57 H57           -3.3799     5.2728    -0.9445 H       
@<TRIPOS>BOND
   1    1    2 1
   2    1    7 1
   3    1    8 1
   4    2    3 1
   5    2   10 2
   6    3    4 1
   7    3   30 1
   8    3   31 1
   9    4    5 1
  10    4   14 1
  11    5    6 1
  12    5   32 1
  13    5   33 1
  14    6    7 1
  15    6   34 1
  16    6   35 1
  17    7   36 1
  18    7   37 1
  19    8    9 2
  20    8   24 1
  21    9   10 1
  22   10   11 1
  23   11   12 2
  24   11   13 am
  25   13   16 1
  26   13   38 1
  27   14   39 1
  28   14   40 1
  29   14   41 1
  30   15   19 2
  31   15   20 am
  32   15   16 1
  33   16   17 1
  34   16   42 1
  35   17   18 1
  36   17   22 1
  37   17   23 1
  38   18   43 1
  39   18   44 1
  40   18   45 1
  41   20   21 1
  42   20   46 1
  43   21   47 1
  44   21   48 1
  45   21   49 1
  46   22   50 1
  47   22   51 1
  48   22   52 1
  49   23   53 1
  50   23   54 1
  51   23   55 1
  52   24   25 2
  53   24   28 1
  54   25   26 1
  55   25   56 1
  56   26   27 2
  57   26   57 1
  58   27   28 1
  59   27   29 1

#	End of record

