#	Name: ASD09200037
#	Creating user name:	WinNT
#	Creation time:	15. 06. 2019 21:21

#	Modifying user name:	WinNT
#	Modification time:	15. 06. 2019 21:21

#	Program:	/corina/corina34_cracker 3.40 0067  02.08.2006

@<TRIPOS>MOLECULE
ASD09200037
  56   59    0    0    0
SMALL
NO_CHARGES


@<TRIPOS>ATOM
   1 N1            -0.0160     1.3305     0.0094 N.am    
   2 C2             0.0021    -0.0041     0.0020 C.2     
   3 S3             1.2788    -0.9041    -0.0145 S.o     
   4 C4             0.4633    -2.4790    -0.0155 C.2     
   5 C5            -0.8417    -2.1587    -0.0019 C.2     
   6 N6            -1.0589    -0.7961     0.0132 N.am    
   7 C7            -1.9271    -3.1580     0.0021 C.ar    
   8 C8            -1.6200    -4.5252    -0.0080 C.ar    
   9 C9            -2.6218    -5.4495    -0.0043 C.ar    
  10 C10           -3.9617    -5.0312     0.0102 C.ar    
  11 C11           -4.2680    -3.6614     0.0208 C.ar    
  12 C12           -3.2642    -2.7392     0.0219 C.ar    
  13 C13            1.2379     2.0962     0.0015 C.3     
  14 C14            1.1994     3.0934    -1.1607 C.3     
  15 C15           -0.0615     3.9534    -1.0482 C.3     
  16 C16           -1.3004     3.0594    -1.1376 C.3     
  17 C17           -1.2903     2.0618     0.0193 C.3     
  18 C18           -0.0591     4.6885     0.2937 C.3     
  19 N19           -0.0850     4.9331    -2.1425 N.3     
  20 C20           -5.0443    -6.0279     0.0137 C.ar    
  21 C21           -6.3863    -5.6062     0.0282 C.ar    
  22 C22           -7.3883    -6.5234     0.0319 C.ar    
  23 C23           -7.0811    -7.9032     0.0208 C.ar    
  24 C24           -5.7314    -8.3232     0.0058 C.ar    
  25 C25           -4.7348    -7.4002    -0.0032 C.ar    
  26 C26           -8.1194    -8.8591     0.0251 C.2     
  27 O27           -7.8233   -10.1803     0.0144 O.3     
  28 O28           -9.2847    -8.4947     0.0385 O.2     
  29 C29           -8.9238   -11.0919     0.0196 C.3     
  30 H30            1.7144    -0.7881    -1.2817 H       
  31 H31            0.9097    -3.4624    -0.0254 H       
  32 H32           -1.9575    -0.4311     0.0240 H       
  33 H33           -0.5890    -4.8467    -0.0191 H       
  34 H34           -2.3849    -6.5031    -0.0128 H       
  35 H35           -5.2985    -3.3383     0.0315 H       
  36 H36           -3.4995    -1.6852     0.0305 H       
  37 H37            1.3424     2.6359     0.9427 H       
  38 H38            2.0802     1.4166    -0.1279 H       
  39 H39            2.0809     3.7333    -1.1205 H       
  40 H40            1.1862     2.5504    -2.1058 H       
  41 H41           -2.1982     3.6750    -1.0808 H       
  42 H42           -1.2901     2.5167    -2.0828 H       
  43 H43           -2.1165     1.3603    -0.0959 H       
  44 H44           -1.3912     2.5965     0.9638 H       
  45 H45            0.8226     5.3262     0.3570 H       
  46 H46           -0.9571     5.3010     0.3740 H       
  47 H47           -0.0411     3.9618     1.1060 H       
  48 H48           -0.9086     5.5137    -2.0905 H       
  49 H49            0.7535     5.4943    -2.1435 H       
  50 H50           -6.6202    -4.5519     0.0367 H       
  51 H51           -8.4183    -6.1989     0.0438 H       
  52 H52           -5.4930    -9.3765    -0.0027 H       
  53 H53           -3.7034    -7.7203    -0.0147 H       
  54 H54           -9.5228   -10.9332     0.9164 H       
  55 H55           -9.5399   -10.9226    -0.8635 H       
  56 H56           -8.5481   -12.1150     0.0099 H       
@<TRIPOS>BOND
   1    1    2 am
   2    1   13 1
   3    1   17 1
   4    2    3 2
   5    2    6 am
   6    3    4 1
   7    3   30 1
   8    4    5 2
   9    4   31 1
  10    5    6 1
  11    5    7 1
  12    6   32 1
  13    7    8 ar
  14    7   12 ar
  15    8    9 ar
  16    8   33 1
  17    9   10 ar
  18    9   34 1
  19   10   11 ar
  20   10   20 1
  21   11   12 ar
  22   11   35 1
  23   12   36 1
  24   13   14 1
  25   13   37 1
  26   13   38 1
  27   14   15 1
  28   14   39 1
  29   14   40 1
  30   15   16 1
  31   15   18 1
  32   15   19 1
  33   16   17 1
  34   16   41 1
  35   16   42 1
  36   17   43 1
  37   17   44 1
  38   18   45 1
  39   18   46 1
  40   18   47 1
  41   19   48 1
  42   19   49 1
  43   20   21 ar
  44   20   25 ar
  45   21   22 ar
  46   21   50 1
  47   22   23 ar
  48   22   51 1
  49   23   24 ar
  50   23   26 1
  51   24   25 ar
  52   24   52 1
  53   25   53 1
  54   26   27 1
  55   26   28 2
  56   27   29 1
  57   29   54 1
  58   29   55 1
  59   29   56 1

#	End of record

