#	Name: ASD01410709
#	Creating user name:	WinNT
#	Creation time:	15. 06. 2019 19:18

#	Modifying user name:	WinNT
#	Modification time:	15. 06. 2019 19:18

#	Program:	/corina/corina34_cracker 3.40 0067  02.08.2006

@<TRIPOS>MOLECULE
ASD01410709
  82   87    0    0    0
SMALL
NO_CHARGES


@<TRIPOS>ATOM
   1 N1            -0.0204     1.6523     0.0111 N.am    
   2 N2             2.1838     2.6097     2.2920 N.3     
   3 N3             2.7140     1.2777     5.7357 N.am    
   4 S4             0.0021    -0.0041     0.0020 S.o2    
   5 O5             0.1968    -0.4232     1.3425 O.2     
   6 N6            -1.5192    -0.5242    -0.4804 N.am    
   7 O7             0.8966    -0.3750    -1.0479 O.2     
   8 C8            -2.6068    -0.2690     0.2533 C.2     
   9 O9            -3.6449    -0.5655    -0.3434 O.2     
  10 C10           -2.8721     0.2184     1.5898 C.ar    
  11 C11           -4.0825     0.9313     1.7148 C.ar    
  12 C12           -4.4974     1.5097     2.8701 C.ar    
  13 C13           -3.6415     1.3761     3.9736 C.ar    
  14 C14           -2.4668     0.5870     3.9070 C.ar    
  15 C15           -2.0749    -0.0115     2.7104 C.ar    
  16 C16           -3.6950     1.9350     5.2616 C.2     
  17 C17           -2.6402     1.4650     5.9727 C.2     
  18 N18           -1.9189     0.5990     5.1632 N.pl3   
  19 C19           -4.7580     2.9116     5.7045 C.3     
  20 C20           -4.7073     4.1574     4.8178 C.3     
  21 C21           -6.1350     2.2558     5.5845 C.3     
  22 C22           -7.2121     3.2454     6.0333 C.3     
  23 C23           -7.1615     4.4912     5.1465 C.3     
  24 C24           -5.7844     5.1470     5.2666 C.3     
  25 C25           -2.3005     1.8167     7.3614 C.ar    
  26 C26           -0.9863     1.9352     7.8228 C.ar    
  27 C27            0.1838     1.5672     7.0484 C.2     
  28 C28            0.3422     0.6631     6.1102 C.2     
  29 C29           -0.7758    -0.2014     5.6059 C.3     
  30 C30            1.6656     0.4502     5.5383 C.2     
  31 O31            1.8491    -0.5657     4.8612 O.2     
  32 C32           -3.3579     1.9904     8.2704 C.ar    
  33 C33           -3.1252     2.4062     9.5593 C.ar    
  34 C34           -1.8235     2.6347     9.9852 C.ar    
  35 C35           -0.7637     2.3963     9.1353 C.ar    
  36 O36           -1.5938     3.0946    11.2435 O.3     
  37 C37            2.6337     1.5849     3.3038 C.3     
  38 C38            2.2216     1.8381     1.0070 C.3     
  39 C39            1.2375     2.4033     0.0031 C.3     
  40 C40            3.6089     1.2590     6.8911 C.3     
  41 C41           -2.7370     3.3199    12.0706 C.3     
  42 C42            2.9239     2.2699     4.6350 C.3     
  43 C43            0.7293     2.8123     2.6140 C.3     
  44 H44           -0.8663     2.1285     0.0117 H       
  45 H45           -1.6174    -1.0311    -1.3236 H       
  46 H46           -4.7137     1.0250     0.8425 H       
  47 H47           -5.4331     2.0444     2.9352 H       
  48 H48           -1.2051    -0.6511     2.6721 H       
  49 H49           -4.5803     3.1964     6.7416 H       
  50 H50           -3.7263     4.6246     4.9033 H       
  51 H51           -4.8850     3.8726     3.7807 H       
  52 H52           -6.3127     1.9710     4.5475 H       
  53 H53           -6.1711     1.3683     6.2163 H       
  54 H54           -8.1932     2.7782     5.9478 H       
  55 H55           -7.0345     3.5302     7.0703 H       
  56 H56           -7.3391     4.2064     4.1095 H       
  57 H57           -7.9288     5.1962     5.4663 H       
  58 H58           -5.6067     5.4318     6.3036 H       
  59 H59           -5.7483     6.0345     4.6348 H       
  60 H60            1.0610     2.1464     7.2761 H       
  61 H61           -1.1011    -0.8536     6.4216 H       
  62 H62           -0.4185    -0.8152     4.7825 H       
  63 H63           -4.3724     1.7617     7.9782 H       
  64 H64           -3.9538     2.5537    10.2383 H       
  65 H65            0.2449     2.5703     9.4808 H       
  66 H66            1.8270     0.8690     3.3957 H       
  67 H67            3.5288     1.1108     2.9129 H       
  68 H68            3.2390     1.9196     0.6118 H       
  69 H69            2.0079     0.7964     1.2299 H       
  70 H70            1.6736     2.3100    -1.0060 H       
  71 H71            1.0526     3.4614     0.1691 H       
  72 H72            3.3008     0.4696     7.5766 H       
  73 H73            4.6296     1.0723     6.5572 H       
  74 H74            3.5638     2.2212     7.4012 H       
  75 H75           -3.3845     4.0609    11.6016 H       
  76 H76           -3.2848     2.3859    12.1956 H       
  77 H77           -2.4139     3.6849    13.0455 H       
  78 H78            2.2703     3.1231     4.7981 H       
  79 H79            3.9663     2.6044     4.6639 H       
  80 H80            0.6305     3.1717     3.6383 H       
  81 H81            0.3043     3.5460     1.9290 H       
  82 H82            0.1985     1.8662     2.5082 H       
@<TRIPOS>BOND
   1    1    4 am
   2    1   39 1
   3    1   44 1
   4    2   37 1
   5    2   38 1
   6    2   43 1
   7    3   30 am
   8    3   40 1
   9    3   42 1
  10    4    5 2
  11    4    6 am
  12    4    7 2
  13    6    8 am
  14    6   45 1
  15    8    9 2
  16    8   10 1
  17   10   11 ar
  18   10   15 ar
  19   11   12 ar
  20   11   46 1
  21   12   13 ar
  22   12   47 1
  23   13   14 ar
  24   13   16 1
  25   14   15 ar
  26   14   18 1
  27   15   48 1
  28   16   17 2
  29   16   19 1
  30   17   18 1
  31   17   25 1
  32   18   29 1
  33   19   20 1
  34   19   21 1
  35   19   49 1
  36   20   24 1
  37   20   50 1
  38   20   51 1
  39   21   22 1
  40   21   52 1
  41   21   53 1
  42   22   23 1
  43   22   54 1
  44   22   55 1
  45   23   24 1
  46   23   56 1
  47   23   57 1
  48   24   58 1
  49   24   59 1
  50   25   26 ar
  51   25   32 ar
  52   26   27 1
  53   26   35 ar
  54   27   28 2
  55   27   60 1
  56   28   29 1
  57   28   30 1
  58   29   61 1
  59   29   62 1
  60   30   31 2
  61   32   33 ar
  62   32   63 1
  63   33   34 ar
  64   33   64 1
  65   34   35 ar
  66   34   36 1
  67   35   65 1
  68   36   41 1
  69   37   42 1
  70   37   66 1
  71   37   67 1
  72   38   39 1
  73   38   68 1
  74   38   69 1
  75   39   70 1
  76   39   71 1
  77   40   72 1
  78   40   73 1
  79   40   74 1
  80   41   75 1
  81   41   76 1
  82   41   77 1
  83   42   78 1
  84   42   79 1
  85   43   80 1
  86   43   81 1
  87   43   82 1

#	End of record

