#	Name: ASD00170091
#	Creating user name:	WinNT
#	Creation time:	15. 06. 2019 18:31

#	Modifying user name:	WinNT
#	Modification time:	15. 06. 2019 18:31

#	Program:	/corina/corina34_cracker 3.40 0067  02.08.2006

@<TRIPOS>MOLECULE
ASD00170091
  46   49    0    0    0
SMALL
NO_CHARGES


@<TRIPOS>ATOM
   1 C1             0.0020     1.3497    -0.0676 C.2     
   2 C2             0.0217     0.0146     0.2011 C.2     
   3 C3            -1.3120    -0.5536     0.2777 C.2     
   4 C4            -2.3022     0.3756     0.0631 C.2     
   5 S5            -1.6489     1.9222    -0.2221 S.3     
   6 N6            -3.6505     0.0927     0.0812 N.pl3   
   7 C7             1.2018     2.1975    -0.2036 C.ar    
   8 C8             2.2678     1.7818    -1.0055 C.ar    
   9 C9             3.3862     2.5795    -1.1279 C.ar    
  10 C10            3.4544     3.7887    -0.4585 C.ar    
  11 C11            2.4024     4.2068     0.3375 C.ar    
  12 C12            1.2751     3.4224     0.4644 C.ar    
  13 C13           -1.5743    -1.9648     0.5537 C.2     
  14 O14           -1.7436    -2.7441    -0.3666 O.2     
  15 C15            1.2627    -0.7685     0.3930 C.ar    
  16 C16            2.0749    -0.5335     1.5030 C.ar    
  17 C17            3.2303    -1.2673     1.6763 C.ar    
  18 C18            3.5845    -2.2342     0.7522 C.ar    
  19 C19            2.7837    -2.4717    -0.3508 C.ar    
  20 C20            1.6225    -1.7490    -0.5324 C.ar    
  21 C21           -1.6342    -2.4464     1.9512 C.ar    
  22 C22           -1.7732    -3.8095     2.2175 C.ar    
  23 C23           -1.8284    -4.2520     3.5229 C.ar    
  24 C24           -1.7468    -3.3479     4.5671 C.ar    
  25 C25           -1.6090    -1.9954     4.3100 C.ar    
  26 C26           -1.5463    -1.5404     3.0092 C.ar    
  27 C27            4.8482    -3.0317     0.9475 C.3     
  28 H28           -3.9567    -0.7947     0.3258 H       
  29 H29           -4.2936     0.7808    -0.1507 H       
  30 H30            2.2162     0.8380    -1.5280 H       
  31 H31            4.2109     2.2595    -1.7474 H       
  32 H32            4.3330     4.4089    -0.5574 H       
  33 H33            2.4626     5.1516     0.8574 H       
  34 H34            0.4547     3.7501     1.0856 H       
  35 H35            1.7999     0.2214     2.2247 H       
  36 H36            3.8598    -1.0864     2.5350 H       
  37 H37            3.0659    -3.2273    -1.0690 H       
  38 H38            0.9982    -1.9354    -1.3937 H       
  39 H39           -1.8376    -4.5161     1.4033 H       
  40 H40           -1.9359    -5.3065     3.7303 H       
  41 H41           -1.7913    -3.6995     5.5874 H       
  42 H42           -1.5459    -1.2948     5.1296 H       
  43 H43           -1.4387    -0.4844     2.8098 H       
  44 H44            4.6267    -3.9269     1.5285 H       
  45 H45            5.2502    -3.3192    -0.0240 H       
  46 H46            5.5817    -2.4257     1.4794 H       
@<TRIPOS>BOND
   1    1    2 2
   2    1    7 1
   3    1    5 1
   4    2    3 1
   5    2   15 1
   6    3    4 2
   7    3   13 1
   8    4    5 1
   9    4    6 1
  10    6   28 1
  11    6   29 1
  12    7    8 ar
  13    7   12 ar
  14    8    9 ar
  15    8   30 1
  16    9   10 ar
  17    9   31 1
  18   10   11 ar
  19   10   32 1
  20   11   12 ar
  21   11   33 1
  22   12   34 1
  23   13   14 2
  24   13   21 1
  25   15   16 ar
  26   15   20 ar
  27   16   17 ar
  28   16   35 1
  29   17   18 ar
  30   17   36 1
  31   18   19 ar
  32   18   27 1
  33   19   20 ar
  34   19   37 1
  35   20   38 1
  36   21   22 ar
  37   21   26 ar
  38   22   23 ar
  39   22   39 1
  40   23   24 ar
  41   23   40 1
  42   24   25 ar
  43   24   41 1
  44   25   26 ar
  45   25   42 1
  46   26   43 1
  47   27   44 1
  48   27   45 1
  49   27   46 1

#	End of record

