#	Name: ASD02198683
#	Creating user name:	WinNT
#	Creation time:	15. 06. 2019 20:20

#	Modifying user name:	WinNT
#	Modification time:	15. 06. 2019 20:20

#	Program:	/corina/corina34_cracker 3.40 0067  02.08.2006

@<TRIPOS>MOLECULE
ASD02198683
  50   54    0    0    0
SMALL
NO_CHARGES


@<TRIPOS>ATOM
   1 F1             2.2528    -1.7082     2.4718 F       
   2 C2            -0.0432     1.5016    -0.1151 C.2     
   3 C3            -0.0730     0.1620     0.0973 C.2     
   4 N4             1.0716    -0.5397     0.2602 N.pl3   
   5 N5             2.2361    -0.0050     0.2266 N.2     
   6 C6             2.4077     1.2842     0.0280 C.2     
   7 C7             1.2218     2.1356    -0.1606 C.2     
   8 C8             0.9801    -1.9175     0.4765 C.ar    
   9 C9             1.5812    -2.4872     1.5957 C.ar    
  10 C10            1.4913    -3.8481     1.8101 C.ar    
  11 C11            0.7983    -4.6504     0.9049 C.ar    
  12 C12            0.1974    -4.0766    -0.2151 C.ar    
  13 C13            0.2842    -2.7168    -0.4231 C.ar    
  14 C14            3.7647     1.8664    -0.0041 C.2     
  15 N15            4.3072     2.6061    -1.0171 N.pl3   
  16 N16            5.6091     2.9573    -0.6390 N.2     
  17 C17            5.8524     2.4579     0.5465 C.2     
  18 C18            4.7200     1.7710     0.9841 C.2     
  19 C19            3.6747     2.9505    -2.2185 C.ar    
  20 C20            3.8089     4.2336    -2.7325 C.ar    
  21 C21            3.1844     4.5699    -3.9175 C.ar    
  22 C22            2.4262     3.6306    -4.5921 C.ar    
  23 C23            2.2903     2.3522    -4.0826 C.ar    
  24 C24            2.9170     2.0080    -2.9010 C.ar    
  25 O25            1.3249     3.3385    -0.3488 O.2     
  26 C26            0.7006    -6.1124     1.1325 C.ar    
  27 N27            1.2751    -6.6521     2.2001 N.ar    
  28 C28            0.0015    -6.9075     0.2267 C.ar    
  29 C29           -0.0814    -8.2706     0.4528 C.ar    
  30 C30            0.5382    -8.7943     1.5784 C.ar    
  31 C31            1.2112    -7.9461     2.4387 C.ar    
  32 C32            7.1410     2.6053     1.3138 C.3     
  33 H33           -0.9546     2.0653    -0.2496 H       
  34 H34           -1.0228    -0.3505     0.1373 H       
  35 H35            1.9577    -4.2906     2.6780 H       
  36 H36           -0.3398    -4.6970    -0.9172 H       
  37 H37           -0.1813    -2.2731    -1.2907 H       
  38 H38            4.6137     1.2518     1.9251 H       
  39 H39            4.4006     4.9677    -2.2059 H       
  40 H40            3.2880     5.5677    -4.3176 H       
  41 H41            1.9389     3.8960    -5.5186 H       
  42 H42            1.6972     1.6209    -4.6116 H       
  43 H43            2.8107     1.0093    -2.5037 H       
  44 H44           -0.4693    -6.4664    -0.6394 H       
  45 H45           -0.6167    -8.9122    -0.2316 H       
  46 H46            0.4916    -9.8537     1.7832 H       
  47 H47            1.6948    -8.3506     3.3155 H       
  48 H48            7.0939     3.5000     1.9347 H       
  49 H49            7.2887     1.7308     1.9475 H       
  50 H50            7.9725     2.6918     0.6144 H       
@<TRIPOS>BOND
   1    1    9 1
   2    2    3 2
   3    2    7 1
   4    2   33 1
   5    3    4 1
   6    3   34 1
   7    4    5 1
   8    4    8 1
   9    5    6 2
  10    6    7 1
  11    6   14 1
  12    7   25 2
  13    8    9 ar
  14    8   13 ar
  15    9   10 ar
  16   10   11 ar
  17   10   35 1
  18   11   12 ar
  19   11   26 1
  20   12   13 ar
  21   12   36 1
  22   13   37 1
  23   14   15 1
  24   14   18 2
  25   15   16 1
  26   15   19 1
  27   16   17 2
  28   17   18 1
  29   17   32 1
  30   18   38 1
  31   19   20 ar
  32   19   24 ar
  33   20   21 ar
  34   20   39 1
  35   21   22 ar
  36   21   40 1
  37   22   23 ar
  38   22   41 1
  39   23   24 ar
  40   23   42 1
  41   24   43 1
  42   26   27 ar
  43   26   28 ar
  44   27   31 ar
  45   28   29 ar
  46   28   44 1
  47   29   30 ar
  48   29   45 1
  49   30   31 ar
  50   30   46 1
  51   31   47 1
  52   32   48 1
  53   32   49 1
  54   32   50 1

#	End of record

