#	Name: ASD04880054
#	Creating user name:	WinNT
#	Creation time:	15. 06. 2019 20:52

#	Modifying user name:	WinNT
#	Modification time:	15. 06. 2019 20:52

#	Program:	/corina/corina34_cracker 3.40 0067  02.08.2006

@<TRIPOS>MOLECULE
ASD04880054
  46   49    0    0    0
SMALL
NO_CHARGES


@<TRIPOS>ATOM
   1 C1            -0.0112     1.3348     0.0506 C.2     
   2 N2             0.0077    -0.0085     0.0099 N.am    
   3 C3             1.4019    -0.4595    -0.0625 C.3     
   4 C4             2.2504     0.7882    -0.0614 C.ar    
   5 C5             3.6105     1.0004    -0.1122 C.ar    
   6 C6             4.1134     2.2871    -0.0945 C.ar    
   7 C7             3.2424     3.3776    -0.0253 C.ar    
   8 C8             1.8661     3.1677     0.0259 C.ar    
   9 C9             1.3645     1.8676     0.0082 C.ar    
  10 O10           -1.0177     2.0139     0.1087 O.2     
  11 C11            3.7814     4.7537    -0.0058 C.2     
  12 O12            3.0254     5.7038    -0.0723 O.2     
  13 N13            5.1108     4.9556     0.0856 N.am    
  14 N14            6.0697     3.9634     0.2795 N.2     
  15 C15            7.2795     4.4039     0.3330 C.2     
  16 C16            7.2779     5.9064     0.1632 C.3     
  17 C17            5.7872     6.2590    -0.0096 C.3     
  18 C18            8.4800     3.5714     0.5301 C.ar    
  19 C19            8.3563     2.1869     0.6759 C.ar    
  20 C20            9.4850     1.4112     0.8598 C.ar    
  21 C21           10.7429     2.0096     0.9001 C.ar    
  22 C22           10.8662     3.3835     0.7559 C.ar    
  23 C23            9.7447     4.1637     0.5657 C.ar    
  24 O24           11.8520     1.2448     1.0815 O.3     
  25 C25           13.1096     1.9227     1.1128 C.3     
  26 O26            9.3682     0.0638     1.0020 O.3     
  27 C27            8.0485    -0.4820     0.9510 C.3     
  28 H28           -0.7722    -0.5850     0.0258 H       
  29 H29            1.6415    -1.0761     0.8039 H       
  30 H30            1.5660    -1.0231    -0.9809 H       
  31 H31            4.2854     0.1589    -0.1658 H       
  32 H32            5.1803     2.4501    -0.1338 H       
  33 H33            1.1909     4.0089     0.0798 H       
  34 H34            7.6888     6.3917     1.0484 H       
  35 H35            7.8403     6.1912    -0.7260 H       
  36 H36            5.6092     6.7133    -0.9843 H       
  37 H37            5.4565     6.9220     0.7899 H       
  38 H38            7.3808     1.7244     0.6452 H       
  39 H39           11.8430     3.8431     0.7880 H       
  40 H40            9.8439     5.2328     0.4492 H       
  41 H41           13.2648     2.4442     0.1683 H       
  42 H42           13.1137     2.6433     1.9306 H       
  43 H43           13.9095     1.1978     1.2633 H       
  44 H44            8.0975    -1.5636     1.0774 H       
  45 H45            7.4455    -0.0499     1.7496 H       
  46 H46            7.5959    -0.2489    -0.0128 H       
@<TRIPOS>BOND
   1    1    2 am
   2    1    9 1
   3    1   10 2
   4    2    3 1
   5    2   28 1
   6    3    4 1
   7    3   29 1
   8    3   30 1
   9    4    5 ar
  10    4    9 ar
  11    5    6 ar
  12    5   31 1
  13    6    7 ar
  14    6   32 1
  15    7    8 ar
  16    7   11 1
  17    8    9 ar
  18    8   33 1
  19   11   12 2
  20   11   13 am
  21   13   14 1
  22   13   17 1
  23   14   15 2
  24   15   16 1
  25   15   18 1
  26   16   17 1
  27   16   34 1
  28   16   35 1
  29   17   36 1
  30   17   37 1
  31   18   19 ar
  32   18   23 ar
  33   19   20 ar
  34   19   38 1
  35   20   21 ar
  36   20   26 1
  37   21   22 ar
  38   21   24 1
  39   22   23 ar
  40   22   39 1
  41   23   40 1
  42   24   25 1
  43   25   41 1
  44   25   42 1
  45   25   43 1
  46   26   27 1
  47   27   44 1
  48   27   45 1
  49   27   46 1

#	End of record

