#	Name: ASD01200330
#	Creating user name:	WinNT
#	Creation time:	15. 06. 2019 19:08

#	Modifying user name:	WinNT
#	Modification time:	15. 06. 2019 19:08

#	Program:	/corina/corina34_cracker 3.40 0067  02.08.2006

@<TRIPOS>MOLECULE
ASD01200330
  49   52    0    0    0
SMALL
NO_CHARGES


@<TRIPOS>ATOM
   1 C1            -0.0166     1.3739     0.0096 C.ar    
   2 C2             0.0021    -0.0041     0.0020 C.ar    
   3 C3             1.2250    -0.6836    -0.0133 C.ar    
   4 C4             2.4209     0.0438    -0.0208 C.ar    
   5 C5             2.3842     1.4243    -0.0130 C.ar    
   6 C6             1.1704     2.0870     0.0021 C.ar    
   7 C7             1.1395     3.5936     0.0105 C.3     
   8 C8             1.8620     4.1117     1.2557 C.3     
   9 C9             1.8276     4.1171    -1.2238 C.2     
  10 C10            1.7233     5.6336     1.3296 C.3     
  11 C11            0.4258     7.4402     2.2834 C.3     
  12 C12            0.2639     6.0293     1.6651 C.3     
  13 C13            2.5475     6.1943     2.5069 C.3     
  14 C14            1.7225     7.3429     3.1134 C.3     
  15 C15            1.2084     4.4630    -2.3634 C.2     
  16 N16            3.1766     4.3159    -1.3472 N.pl3   
  17 C17            2.2470     4.9141    -3.2911 C.ar    
  18 C18            2.2426     5.3906    -4.6043 C.ar    
  19 C19            3.4682     4.8010    -2.5995 C.ar    
  20 N20            4.6002     5.1466    -3.1985 N.ar    
  21 C21            4.6184     5.5949    -4.4356 C.ar    
  22 C22            3.4538     5.7312    -5.1758 C.ar    
  23 C23            1.2538    -2.1540    -0.0210 C.2     
  24 O24            2.3157    -2.7396    -0.0342 O.2     
  25 C25           -0.0362    -2.9330    -0.0124 C.3     
  26 Cl26           3.9453    -0.7867    -0.0392 Cl      
  27 H27           -0.9601     1.8994     0.0169 H       
  28 H28           -0.9250    -0.5581     0.0082 H       
  29 H29            3.3056     1.9877    -0.0188 H       
  30 H30            0.1046     3.9357     0.0222 H       
  31 H31            1.4200     3.6630     2.1452 H       
  32 H32            2.9175     3.8453     1.2005 H       
  33 H33            2.0385     6.0905     0.3915 H       
  34 H34            0.5299     8.1905     1.4997 H       
  35 H35           -0.4223     7.6744     2.9268 H       
  36 H36           -0.3427     6.0713     0.7604 H       
  37 H37           -0.1673     5.3376     2.3888 H       
  38 H38            2.7095     5.4165     3.2531 H       
  39 H39            3.5045     6.5717     2.1465 H       
  40 H40            2.2791     8.2778     3.0473 H       
  41 H41            1.4842     7.1226     4.1539 H       
  42 H42            0.1472     4.4170    -2.5586 H       
  43 H43            3.8305     4.1407    -0.6525 H       
  44 H44            1.3198     5.4895    -5.1566 H       
  45 H45            5.5629     5.8649    -4.8844 H       
  46 H46            3.4927     6.1035    -6.1889 H       
  47 H47           -0.8784    -2.2411    -0.0007 H       
  48 H48           -0.0903    -3.5562    -0.9050 H       
  49 H49           -0.0730    -3.5652     0.8748 H       
@<TRIPOS>BOND
   1    1    2 ar
   2    1    6 ar
   3    1   27 1
   4    2    3 ar
   5    2   28 1
   6    3    4 ar
   7    3   23 1
   8    4    5 ar
   9    4   26 1
  10    5    6 ar
  11    5   29 1
  12    6    7 1
  13    7    8 1
  14    7    9 1
  15    7   30 1
  16    8   10 1
  17    8   31 1
  18    8   32 1
  19    9   16 1
  20    9   15 2
  21   10   13 1
  22   10   12 1
  23   10   33 1
  24   11   12 1
  25   11   14 1
  26   11   34 1
  27   11   35 1
  28   12   36 1
  29   12   37 1
  30   13   14 1
  31   13   38 1
  32   13   39 1
  33   14   40 1
  34   14   41 1
  35   15   17 1
  36   15   42 1
  37   16   19 1
  38   16   43 1
  39   17   19 ar
  40   17   18 ar
  41   18   22 ar
  42   18   44 1
  43   19   20 ar
  44   20   21 ar
  45   21   22 ar
  46   21   45 1
  47   22   46 1
  48   23   24 2
  49   23   25 1
  50   25   47 1
  51   25   48 1
  52   25   49 1

#	End of record

