#	Name: ASD01883822
#	Creating user name:	WinNT
#	Creation time:	15. 06. 2019 19:47

#	Modifying user name:	WinNT
#	Modification time:	15. 06. 2019 19:47

#	Program:	/corina/corina34_cracker 3.40 0067  02.08.2006

@<TRIPOS>MOLECULE
ASD01883822
  59   62    0    0    0
SMALL
NO_CHARGES


@<TRIPOS>ATOM
   1 C1            -0.0168     1.3899     0.0097 C.ar    
   2 C2             0.0021    -0.0041     0.0020 C.ar    
   3 C3            -1.1845    -0.7109     0.0100 C.ar    
   4 C4            -2.4026    -0.0252     0.0258 C.ar    
   5 C5            -2.4141     1.3724     0.0334 C.ar    
   6 C6            -1.2267     2.0710     0.0307 C.ar    
   7 O7             1.1507     2.0833     0.0023 O.3     
   8 C8             1.0585     3.5093     0.0108 C.3     
   9 C9             2.4650     4.1114     0.0006 C.3     
  10 C10            2.3662     5.6381     0.0097 C.3     
  11 C11            3.7727     6.2402    -0.0005 C.3     
  12 O12            3.6805     7.6662     0.0081 O.3     
  13 C13            4.8479     8.3595     0.0007 C.ar    
  14 C14            6.0646     7.6789    -0.0146 C.ar    
  15 C15            7.2450     8.3542    -0.0223 C.ar    
  16 C16            7.2633     9.7645    -0.0149 C.ar    
  17 C17            6.0307    10.4431     0.0000 C.ar    
  18 C18            4.8328     9.7432     0.0025 C.ar    
  19 C19            8.3897    10.6870    -0.0203 C.2     
  20 N20            8.0985    11.9875    -0.0107 N.am    
  21 S21            6.4151    12.1656     0.0057 S.3     
  22 O22            9.5421    10.2895    -0.0326 O.2     
  23 C23            9.0733    13.0812    -0.0133 C.3     
  24 C24            9.9746    12.9870     1.2302 C.3     
  25 C25           11.4183    12.8113     0.7158 C.3     
  26 C26           11.3872    13.4065    -0.7138 C.3     
  27 C27           10.0007    12.9595    -1.2400 C.3     
  28 O28            1.1889    -0.6680    -0.0138 O.3     
  29 C29            1.1335    -2.0959    -0.0209 C.3     
  30 C30           -3.6726    -0.7747     0.0339 C.2     
  31 O31           -3.6610    -1.9897     0.0269 O.2     
  32 O32           -4.8459    -0.1122     0.0491 O.3     
  33 H33           -1.1714    -1.7908     0.0037 H       
  34 H34           -3.3538     1.9046     0.0455 H       
  35 H35           -1.2370     3.1509     0.0366 H       
  36 H36            0.5138     3.8434    -0.8722 H       
  37 H37            0.5308     3.8339     0.9076 H       
  38 H38            3.0097     3.7772     0.8836 H       
  39 H39            2.9927     3.7868    -0.8962 H       
  40 H40            1.8215     5.9723    -0.8733 H       
  41 H41            1.8385     5.9627     0.9066 H       
  42 H42            4.3174     5.9061     0.8826 H       
  43 H43            4.3004     5.9156    -0.8973 H       
  44 H44            6.0698     6.5989    -0.0201 H       
  45 H45            8.1757     7.8064    -0.0337 H       
  46 H46            3.8932    10.2756     0.0140 H       
  47 H47            8.5570    14.0411    -0.0284 H       
  48 H48            9.8964    13.9015     1.8182 H       
  49 H49            9.6868    12.1276     1.8357 H       
  50 H50           12.1170    13.3639     1.3440 H       
  51 H51           11.6859    11.7552     0.6837 H       
  52 H52           11.4558    14.4938    -0.6811 H       
  53 H53           12.1861    12.9861    -1.3247 H       
  54 H54           10.0394    11.9273    -1.5881 H       
  55 H55            9.6649    13.6202    -2.0393 H       
  56 H56            2.1462    -2.4987    -0.0335 H       
  57 H57            0.6152    -2.4438     0.8727 H       
  58 H58            0.5968    -2.4343    -0.9072 H       
  59 H59           -5.6518    -0.6466     0.0539 H       
@<TRIPOS>BOND
   1    1    2 ar
   2    1    7 1
   3    1    6 ar
   4    2    3 ar
   5    2   28 1
   6    3    4 ar
   7    3   33 1
   8    4    5 ar
   9    4   30 1
  10    5    6 ar
  11    5   34 1
  12    6   35 1
  13    7    8 1
  14    8    9 1
  15    8   36 1
  16    8   37 1
  17    9   10 1
  18    9   38 1
  19    9   39 1
  20   10   11 1
  21   10   40 1
  22   10   41 1
  23   11   12 1
  24   11   42 1
  25   11   43 1
  26   12   13 1
  27   13   14 ar
  28   13   18 ar
  29   14   15 ar
  30   14   44 1
  31   15   16 ar
  32   15   45 1
  33   16   17 ar
  34   16   19 1
  35   17   18 ar
  36   17   21 1
  37   18   46 1
  38   19   20 am
  39   19   22 2
  40   20   21 1
  41   20   23 1
  42   23   24 1
  43   23   27 1
  44   23   47 1
  45   24   25 1
  46   24   48 1
  47   24   49 1
  48   25   26 1
  49   25   50 1
  50   25   51 1
  51   26   27 1
  52   26   52 1
  53   26   53 1
  54   27   54 1
  55   27   55 1
  56   28   29 1
  57   29   56 1
  58   29   57 1
  59   29   58 1
  60   30   31 2
  61   30   32 1
  62   32   59 1

#	End of record

