#	Name: ASD01152554
#	Creating user name:	WinNT
#	Creation time:	15. 06. 2019 19:06

#	Modifying user name:	WinNT
#	Modification time:	15. 06. 2019 19:06

#	Program:	/corina/corina34_cracker 3.40 0067  02.08.2006

@<TRIPOS>MOLECULE
ASD01152554
  52   54    0    0    0
SMALL
NO_CHARGES


@<TRIPOS>ATOM
   1 C1             0.0180     1.2186    -0.5218 C.2     
   2 N2            -0.0458    -0.0858    -0.4901 N.2     
   3 N3            -1.1757    -0.7510    -0.0144 N.am    
   4 C4            -2.3335    -0.1186     0.2386 C.2     
   5 C5            -2.4935     1.3440    -0.1035 C.3     
   6 C6            -1.1242     1.9922    -0.0119 C.2     
   7 C7            -3.0462     1.4866    -1.5230 C.3     
   8 O8            -0.9808     3.1032     0.4553 O.2     
   9 C9            -1.1003    -2.1313     0.2075 C.ar    
  10 O10           -3.2545    -0.7246     0.7436 O.2     
  11 C11           -3.3184     2.9403    -1.8125 C.ar    
  12 C12           -2.0884    -2.9707    -0.2906 C.ar    
  13 C13           -0.0344    -2.6637     0.9212 C.ar    
  14 C14            0.0382    -4.0255     1.1386 C.ar    
  15 C15           -0.9506    -4.8602     0.6451 C.ar    
  16 C16           -2.0119    -4.3319    -0.0710 C.ar    
  17 C17           -2.3299     3.7305    -2.3659 C.ar    
  18 C18           -4.5594     3.4806    -1.5290 C.ar    
  19 C19           -4.8122     4.8137    -1.7933 C.ar    
  20 C20           -2.5812     5.0689    -2.6321 C.ar    
  21 C21           -3.8250     5.6098    -2.3416 C.ar    
  22 C22           -4.1013     7.0630    -2.6296 C.3     
  23 F23           -0.8774    -6.1922     0.8584 F       
  24 C24           -5.2598     7.1748    -3.6227 C.3     
  25 C25           -4.4732     7.7788    -1.3295 C.3     
  26 O26            1.1190     1.8475    -1.0105 O.3     
  27 C27            2.1847     1.0191    -1.4797 C.3     
  28 O28           -1.6104     5.8484    -3.1770 O.3     
  29 C29           -0.3543     5.2242    -3.4502 C.3     
  30 H30           -3.1716     1.8172     0.6067 H       
  31 H31           -2.3167     1.1044    -2.2371 H       
  32 H32           -3.9725     0.9190    -1.6110 H       
  33 H33           -2.9162    -2.5592    -0.8491 H       
  34 H34            0.7373    -2.0133     1.3056 H       
  35 H35            0.8669    -4.4399     1.6935 H       
  36 H36           -2.7802    -4.9849    -0.4578 H       
  37 H37           -1.3621     3.3072    -2.5908 H       
  38 H38           -5.3325     2.8598    -1.1007 H       
  39 H39           -5.7824     5.2332    -1.5714 H       
  40 H40           -3.2109     7.5245    -3.0566 H       
  41 H41           -6.1502     6.7133    -3.1957 H       
  42 H42           -5.4597     8.2259    -3.8310 H       
  43 H43           -4.9949     6.6649    -4.5489 H       
  44 H44           -3.6479     7.6991    -0.6220 H       
  45 H45           -4.6731     8.8299    -1.5378 H       
  46 H46           -5.3636     7.3173    -0.9025 H       
  47 H47            2.9996     1.6459    -1.8418 H       
  48 H48            2.5436     0.3920    -0.6636 H       
  49 H49            1.8236     0.3876    -2.2914 H       
  50 H50            0.0677     4.8359    -2.5232 H       
  51 H51           -0.5012     4.4048    -4.1538 H       
  52 H52            0.3287     5.9558    -3.8819 H       
@<TRIPOS>BOND
   1    1    2 2
   2    1   26 1
   3    1    6 1
   4    2    3 1
   5    3    4 am
   6    3    9 1
   7    4    5 1
   8    4   10 2
   9    5    6 1
  10    5    7 1
  11    5   30 1
  12    6    8 2
  13    7   11 1
  14    7   31 1
  15    7   32 1
  16    9   12 ar
  17    9   13 ar
  18   11   17 ar
  19   11   18 ar
  20   12   16 ar
  21   12   33 1
  22   13   14 ar
  23   13   34 1
  24   14   15 ar
  25   14   35 1
  26   15   16 ar
  27   15   23 1
  28   16   36 1
  29   17   20 ar
  30   17   37 1
  31   18   19 ar
  32   18   38 1
  33   19   21 ar
  34   19   39 1
  35   20   28 1
  36   20   21 ar
  37   21   22 1
  38   22   24 1
  39   22   25 1
  40   22   40 1
  41   24   41 1
  42   24   42 1
  43   24   43 1
  44   25   44 1
  45   25   45 1
  46   25   46 1
  47   26   27 1
  48   27   47 1
  49   27   48 1
  50   27   49 1
  51   28   29 1
  52   29   50 1
  53   29   51 1
  54   29   52 1

#	End of record

