#	Name: ASD02198210
#	Creating user name:	WinNT
#	Creation time:	15. 06. 2019 20:19

#	Modifying user name:	WinNT
#	Modification time:	15. 06. 2019 20:19

#	Program:	/corina/corina34_cracker 3.40 0067  02.08.2006

@<TRIPOS>MOLECULE
ASD02198210
  42   45    0    0    0
SMALL
NO_CHARGES


@<TRIPOS>ATOM
   1 C1            -0.0166     1.3753     0.0096 C.2     
   2 C2             0.0021    -0.0041     0.0020 C.2     
   3 C3            -1.1878    -0.8008     0.0091 C.1     
   4 S4             1.5675     2.0054    -0.0021 S.3     
   5 C5             2.2772     0.3990    -0.0175 C.2     
   6 C6             1.2824    -0.5520    -0.0132 C.2     
   7 C7             3.6579     0.1249    -0.0329 C.2     
   8 C8             4.6307     1.2351    -0.0365 C.2     
   9 O9             4.0505    -1.0301    -0.0433 O.2     
  10 N10            1.5294    -1.9154    -0.0228 N.pl3   
  11 N11           -1.1593     2.1393     0.0194 N.pl3   
  12 N12           -2.1317    -1.4328     0.0147 N.1     
  13 C13           -1.0630     3.6011     0.0268 C.3     
  14 C14           -2.4689     4.2047     0.0370 C.3     
  15 C15            5.9935     1.1304    -0.0508 C.2     
  16 C16            6.4372     2.4802    -0.0486 C.2     
  17 O17            4.3522     2.5521    -0.0324 O.3     
  18 N18            5.3580     3.2224    -0.0341 N.2     
  19 C19            7.8438     2.9548    -0.0601 C.ar    
  20 C20            8.1209     4.3201    -0.0562 C.ar    
  21 C21            8.8914     2.0365    -0.0689 C.ar    
  22 C22           10.1973     2.4832    -0.0795 C.ar    
  23 C23           10.4668     3.8399    -0.0810 C.ar    
  24 C24            9.4305     4.7560    -0.0669 C.ar    
  25 C25           -2.5840     5.7251     0.1642 C.3     
  26 C26           -2.8861     5.0441    -1.1722 C.3     
  27 H27            2.4424    -2.2428    -0.0333 H       
  28 H28            0.7893    -2.5424    -0.0191 H       
  29 H29           -2.0294     1.7105     0.0213 H       
  30 H30           -0.5220     3.9250     0.9159 H       
  31 H31           -0.5308     3.9347    -0.8640 H       
  32 H32           -3.2367     3.5998     0.5193 H       
  33 H33            6.5928     0.2319    -0.0612 H       
  34 H34            7.3125     5.0362    -0.0452 H       
  35 H35            8.6821     0.9770    -0.0671 H       
  36 H36           11.0102     1.7722    -0.0864 H       
  37 H37           11.4901     4.1852    -0.0886 H       
  38 H38            9.6464     5.8142    -0.0681 H       
  39 H39           -3.4278     6.1204     0.7297 H       
  40 H40           -1.6582     6.2953     0.2405 H       
  41 H41           -2.1590     5.1663    -1.9750 H       
  42 H42           -3.9286     4.9914    -1.4859 H       
@<TRIPOS>BOND
   1    1    2 2
   2    1    4 1
   3    1   11 1
   4    2    3 1
   5    2    6 1
   6    3   12 3
   7    4    5 1
   8    5    6 2
   9    5    7 1
  10    6   10 1
  11    7    8 1
  12    7    9 2
  13    8   15 2
  14    8   17 1
  15   10   27 1
  16   10   28 1
  17   11   13 1
  18   11   29 1
  19   13   14 1
  20   13   30 1
  21   13   31 1
  22   14   25 1
  23   14   26 1
  24   14   32 1
  25   15   16 1
  26   15   33 1
  27   16   19 1
  28   16   18 2
  29   17   18 1
  30   19   20 ar
  31   19   21 ar
  32   20   24 ar
  33   20   34 1
  34   21   22 ar
  35   21   35 1
  36   22   23 ar
  37   22   36 1
  38   23   24 ar
  39   23   37 1
  40   24   38 1
  41   25   26 1
  42   25   39 1
  43   25   40 1
  44   26   41 1
  45   26   42 1

#	End of record

