#	Name: ASD01885040
#	Creating user name:	WinNT
#	Creation time:	15. 06. 2019 19:49

#	Modifying user name:	WinNT
#	Modification time:	15. 06. 2019 19:49

#	Program:	/corina/corina34_cracker 3.40 0067  02.08.2006

@<TRIPOS>MOLECULE
ASD01885040
  58   62    0    0    0
SMALL
NO_CHARGES


@<TRIPOS>ATOM
   1 C1             1.5273    -0.1023     0.0771 C.2     
   2 C2             1.1251    -1.2807     0.7349 C.2     
   3 C3            -0.0164    -1.2719     1.4746 C.2     
   4 C4            -0.7752    -0.0929     1.5719 C.2     
   5 C5            -0.3776     1.0288     0.9355 C.2     
   6 N6             0.7684     1.0362     0.1962 N.pl3   
   7 C7             1.4053     1.9869    -0.5399 C.2     
   8 N8             2.4723     1.4347    -1.0573 N.2     
   9 N9             2.5572     0.2027    -0.6954 N.2     
  10 C10            0.9619     3.4151    -0.7260 C.3     
  11 C11            1.9496    -2.5370     0.6203 C.3     
  12 C12            1.5747     4.2865     0.3722 C.3     
  13 C13            1.3384     5.7960     0.2905 C.3     
  14 C14            0.6162     4.9650     1.3529 C.3     
  15 C15           -0.4659    -2.5217     2.1866 C.3     
  16 N16            0.0329    -2.5045     3.5682 N.3     
  17 C17           -0.5765    -3.5809     4.3616 C.3     
  18 C18            0.0267    -3.5785     5.7682 C.3     
  19 N19           -0.2051    -2.2699     6.3955 N.3     
  20 C20            0.4043    -1.1934     5.6021 C.3     
  21 C21           -0.1989    -1.1959     4.1955 C.3     
  22 C22            0.2701    -2.2535     7.7119 C.ar    
  23 C23            0.0415    -1.1445     8.5226 C.ar    
  24 C24            0.5142    -1.1339     9.8261 C.ar    
  25 C25            1.2116    -2.2246    10.3182 C.ar    
  26 C26            1.4381    -3.3249     9.5128 C.ar    
  27 C27            0.9651    -3.3443     8.2139 C.ar    
  28 O28           -0.6436    -0.0740     8.0368 O.3     
  29 C29           -2.0600    -0.0699     8.2262 C.3     
  30 F30            1.3596    -3.3986    -0.3107 F       
  31 F31            3.2426    -2.2093     0.1986 F       
  32 F32            2.0118    -3.1692     1.8667 F       
  33 F33            0.2949    -0.0599    10.6157 F       
  34 H34           -1.6818    -0.0847     2.1588 H       
  35 H35           -0.9688     1.9290     1.0166 H       
  36 H36            1.2918     3.7739    -1.7009 H       
  37 H37           -0.1252     3.4685    -0.6679 H       
  38 H38            2.5354     3.9477     0.7599 H       
  39 H39            2.1436     6.4502     0.6248 H       
  40 H40            0.7465     6.1682    -0.5456 H       
  41 H41           -0.4510     4.7906     1.2157 H       
  42 H42            0.9461     5.0726     2.3862 H       
  43 H43           -1.5551    -2.5638     2.1940 H       
  44 H44           -0.0720    -3.3964     1.6690 H       
  45 H45           -1.6526    -3.4200     4.4270 H       
  46 H46           -0.3804    -4.5407     3.8835 H       
  47 H47           -0.4446    -4.3576     6.3673 H       
  48 H48            1.0985    -3.7665     5.7046 H       
  49 H49            0.2082    -0.2337     6.0802 H       
  50 H50            1.4803    -1.3544     5.5366 H       
  51 H51            0.2724    -0.4168     3.5963 H       
  52 H52           -1.2707    -1.0078     4.2591 H       
  53 H53            1.5797    -2.2152    11.3335 H       
  54 H54            1.9828    -4.1731     9.9004 H       
  55 H55            1.1399    -4.2074     7.5886 H       
  56 H56           -2.2839    -0.0228     9.2919 H       
  57 H57           -2.4910     0.7973     7.7257 H       
  58 H58           -2.4855    -0.9809     7.8054 H       
@<TRIPOS>BOND
   1    1    2 1
   2    1    9 2
   3    1    6 1
   4    2    3 2
   5    2   11 1
   6    3    4 1
   7    3   15 1
   8    4    5 2
   9    4   34 1
  10    5    6 1
  11    5   35 1
  12    6    7 1
  13    7    8 2
  14    7   10 1
  15    8    9 1
  16   10   12 1
  17   10   36 1
  18   10   37 1
  19   11   30 1
  20   11   31 1
  21   11   32 1
  22   12   13 1
  23   12   14 1
  24   12   38 1
  25   13   14 1
  26   13   39 1
  27   13   40 1
  28   14   41 1
  29   14   42 1
  30   15   16 1
  31   15   43 1
  32   15   44 1
  33   16   17 1
  34   16   21 1
  35   17   18 1
  36   17   45 1
  37   17   46 1
  38   18   19 1
  39   18   47 1
  40   18   48 1
  41   19   20 1
  42   19   22 1
  43   20   21 1
  44   20   49 1
  45   20   50 1
  46   21   51 1
  47   21   52 1
  48   22   23 ar
  49   22   27 ar
  50   23   24 ar
  51   23   28 1
  52   24   25 ar
  53   24   33 1
  54   25   26 ar
  55   25   53 1
  56   26   27 ar
  57   26   54 1
  58   27   55 1
  59   28   29 1
  60   29   56 1
  61   29   57 1
  62   29   58 1

#	End of record

