#	Name: ASD02039253
#	Creating user name:	WinNT
#	Creation time:	15. 06. 2019 20:17

#	Modifying user name:	WinNT
#	Modification time:	15. 06. 2019 20:17

#	Program:	/corina/corina34_cracker 3.40 0067  02.08.2006

@<TRIPOS>MOLECULE
ASD02039253
  49   52    0    0    0
SMALL
NO_CHARGES


@<TRIPOS>ATOM
   1 N1            -0.0160     1.3036    -0.0275 N.2     
   2 C2             0.0019    -0.0039    -0.0001 C.2     
   3 C3             1.3717    -0.3810     0.0196 C.2     
   4 C4             2.0347     0.7973     0.0009 C.2     
   5 O5             1.1031     1.7614    -0.0273 O.3     
   6 N6            -1.0994    -0.8549     0.0084 N.pl3   
   7 C7            -0.9164    -2.2357    -0.1058 C.ar    
   8 C8             0.1056    -2.7392    -0.9006 C.ar    
   9 C9             0.2839    -4.1042    -1.0108 C.ar    
  10 C10           -0.5539    -4.9696    -0.3315 C.ar    
  11 C11           -1.5726    -4.4718     0.4602 C.ar    
  12 C12           -1.7526    -3.1078     0.5798 C.ar    
  13 O13            4.0144     1.0218    -1.3329 O.3     
  14 C14            5.3529     1.1900    -1.5021 C.ar    
  15 C15            6.1808     1.3213    -0.3900 C.ar    
  16 C16            7.5393     1.4921    -0.5423 C.ar    
  17 C17            8.0956     1.5346    -1.8161 C.ar    
  18 C18            7.2624     1.4023    -2.9431 C.ar    
  19 C19            5.8854     1.2242    -2.7755 C.ar    
  20 C20            3.5293     0.9896     0.0108 C.3     
  21 C21           -0.3566    -6.4585    -0.4546 C.3     
  22 N22            9.4541     1.7059    -1.9897 N.am    
  23 C23            9.9942     1.7483    -3.2201 C.2     
  24 C24            9.2024     1.6209    -4.3814 C.2     
  25 C25            7.8613     1.4499    -4.2783 C.2     
  26 O26           11.1980     1.9009    -3.3356 O.2     
  27 C27            0.6031    -6.9378     0.6364 C.3     
  28 C28            0.8034    -8.4494     0.5114 C.3     
  29 H29            1.7870    -1.3777     0.0445 H       
  30 H30           -1.9939    -0.4896     0.0936 H       
  31 H31            0.7598    -2.0638    -1.4320 H       
  32 H32            1.0784    -4.4962    -1.6286 H       
  33 H33           -2.2254    -5.1504     0.9891 H       
  34 H34           -2.5482    -2.7197     1.1985 H       
  35 H35            5.7537     1.2893     0.6014 H       
  36 H36            8.1719     1.5932     0.3272 H       
  37 H37            5.2418     1.1218    -3.6367 H       
  38 H38            3.7715     1.9293     0.5072 H       
  39 H39            3.9983     0.1643     0.5467 H       
  40 H40           -1.3163    -6.9628    -0.3415 H       
  41 H41            0.0621    -6.6898    -1.4341 H       
  42 H42           10.0274     1.7973    -1.2127 H       
  43 H43            9.6665     1.6595    -5.3559 H       
  44 H44            7.2482     1.3509    -5.1619 H       
  45 H45            1.5628    -6.4335     0.5232 H       
  46 H46            0.1844    -6.7065     1.6158 H       
  47 H47            1.4871    -8.7908     1.2886 H       
  48 H48           -0.1563    -8.9537     0.6245 H       
  49 H49            1.2221    -8.6807    -0.4681 H       
@<TRIPOS>BOND
   1    1    2 2
   2    1    5 1
   3    2    3 1
   4    2    6 1
   5    3    4 2
   6    3   29 1
   7    4    5 1
   8    4   20 1
   9    6    7 1
  10    6   30 1
  11    7    8 ar
  12    7   12 ar
  13    8    9 ar
  14    8   31 1
  15    9   10 ar
  16    9   32 1
  17   10   11 ar
  18   10   21 1
  19   11   12 ar
  20   11   33 1
  21   12   34 1
  22   13   14 1
  23   13   20 1
  24   14   15 ar
  25   14   19 ar
  26   15   16 ar
  27   15   35 1
  28   16   17 ar
  29   16   36 1
  30   17   18 ar
  31   17   22 1
  32   18   19 ar
  33   18   25 1
  34   19   37 1
  35   20   38 1
  36   20   39 1
  37   21   27 1
  38   21   40 1
  39   21   41 1
  40   22   23 am
  41   22   42 1
  42   23   24 1
  43   23   26 2
  44   24   25 2
  45   24   43 1
  46   25   44 1
  47   27   28 1
  48   27   45 1
  49   27   46 1
  50   28   47 1
  51   28   48 1
  52   28   49 1

#	End of record

