#	Name: ASD01916161
#	Creating user name:	WinNT
#	Creation time:	15. 06. 2019 20:06

#	Modifying user name:	WinNT
#	Modification time:	15. 06. 2019 20:06

#	Program:	/corina/corina34_cracker 3.40 0067  02.08.2006

@<TRIPOS>MOLECULE
ASD01916161
  47   50    0    0    0
SMALL
NO_CHARGES


@<TRIPOS>ATOM
   1 C1             0.0768     1.3894    -0.0525 C.ar    
   2 C2             0.0821     0.0079    -0.0530 C.ar    
   3 C3             1.2869    -0.6799    -0.0513 C.ar    
   4 C4             2.4837     0.0218    -0.0490 C.ar    
   5 C5             2.4730     1.4032    -0.0485 C.ar    
   6 C6             1.2709     2.0864    -0.0502 C.ar    
   7 O7             1.2948    -2.0389    -0.0513 O.3     
   8 C8             2.5717    -2.6803    -0.0495 C.3     
   9 C9             2.3829    -4.1754    -0.0498 C.2     
  10 C10            1.1540    -4.8476    -0.0517 C.2     
  11 N11            3.3400    -5.0701    -0.0542 N.2     
  12 N12            2.7518    -6.3377    -0.0573 N.pl3   
  13 C13            1.4092    -6.1696    -0.0507 C.2     
  14 C14            3.4347    -7.6342    -0.0752 C.3     
  15 C15            2.4617    -8.7242     0.3872 C.3     
  16 N16            1.1722    -8.5446    -0.2972 N.am    
  17 C17            0.4151    -7.3066    -0.0378 C.3     
  18 C18            0.6971    -9.4825    -1.1404 C.2     
  19 C19           -0.6580    -9.3420    -1.7148 C.ar    
  20 O20            1.3826   -10.4440    -1.4287 O.2     
  21 C21           -0.9159    -9.7760    -3.0158 C.ar    
  22 C22           -3.1967    -9.0803    -2.7938 C.ar    
  23 C23           -2.9499    -8.6521    -1.4989 C.ar    
  24 C24           -1.6858    -8.7800    -0.9560 C.ar    
  25 C25           -2.1825    -9.6430    -3.5471 C.ar    
  26 C26            3.9091    -7.9423    -1.4968 C.3     
  27 H27            4.2924    -7.6031     0.5967 H       
  28 F28           -3.9453    -8.1033    -0.7687 F       
  29 H29           -0.8608     1.9253    -0.0584 H       
  30 H30           -0.8508    -0.5361    -0.0544 H       
  31 H31            3.4229    -0.5114    -0.0473 H       
  32 H32            3.4044     1.9500    -0.0464 H       
  33 H33            1.2647     3.1664    -0.0498 H       
  34 H34            3.1284    -2.3842    -0.9386 H       
  35 H35            3.1257    -2.3843     0.8414 H       
  36 H36            0.1768    -4.3877    -0.0535 H       
  37 H37            2.8702    -9.7047     0.1424 H       
  38 H38            2.3156    -8.6486     1.4647 H       
  39 H39           -0.0680    -7.3636     0.9377 H       
  40 H40           -0.3333    -7.1583    -0.8163 H       
  41 H41           -0.1253   -10.2150    -3.6062 H       
  42 H42           -4.1862    -8.9789    -3.2144 H       
  43 H43           -1.4936    -8.4463     0.0530 H       
  44 H44           -2.3822    -9.9788    -4.5539 H       
  45 H45            4.5979    -7.1646    -1.8265 H       
  46 H46            4.4169    -8.9067    -1.5094 H       
  47 H47            3.0503    -7.9751    -2.1673 H       
@<TRIPOS>BOND
   1    1    2 ar
   2    1    6 ar
   3    1   29 1
   4    2    3 ar
   5    2   30 1
   6    3    4 ar
   7    3    7 1
   8    4    5 ar
   9    4   31 1
  10    5    6 ar
  11    5   32 1
  12    6   33 1
  13    7    8 1
  14    8    9 1
  15    8   34 1
  16    8   35 1
  17    9   10 1
  18    9   11 2
  19   10   13 2
  20   10   36 1
  21   11   12 1
  22   12   13 1
  23   12   14 1
  24   13   17 1
  25   14   15 1
  26   14   26 1
  27   14   27 1
  28   15   16 1
  29   15   37 1
  30   15   38 1
  31   16   17 1
  32   16   18 am
  33   17   39 1
  34   17   40 1
  35   18   19 1
  36   18   20 2
  37   19   21 ar
  38   19   24 ar
  39   21   25 ar
  40   21   41 1
  41   22   23 ar
  42   22   25 ar
  43   22   42 1
  44   23   24 ar
  45   23   28 1
  46   24   43 1
  47   25   44 1
  48   26   45 1
  49   26   46 1
  50   26   47 1

#	End of record

