#	Name: ASD02560157
#	Creating user name:	WinNT
#	Creation time:	15. 06. 2019 20:24

#	Modifying user name:	WinNT
#	Modification time:	15. 06. 2019 20:24

#	Program:	/corina/corina34_cracker 3.40 0067  02.08.2006

@<TRIPOS>MOLECULE
ASD02560157
  63   66    0    0    0
SMALL
NO_CHARGES


@<TRIPOS>ATOM
   1 N1             0.0978     1.1461     0.6109 N.2     
   2 N2            -0.0780    -0.0616     0.4224 N.2     
   3 C3             1.5186     1.5003     0.4976 C.3     
   4 N4             2.2399     0.2060     0.5921 N.3     
   5 C5             1.1916    -0.7466     0.1470 C.3     
   6 S6             1.2959    -2.2892     1.0959 S.3     
   7 C7             1.0396    -1.7356     2.8042 C.3     
   8 C8             1.0988    -2.9223     3.7311 C.2     
   9 O9             1.2946    -4.0324     3.2833 O.2     
  10 N10            0.9341    -2.7502     5.0576 N.am    
  11 C11            3.3360     0.1809    -0.2692 C.ar    
  12 C12            0.9270    -3.8588     5.9114 C.ar    
  13 C13            1.1530    -3.6911     7.2715 C.ar    
  14 C14            1.1453    -4.7872     8.1115 C.ar    
  15 C15            0.9130    -6.0509     7.5996 C.ar    
  16 C16            0.6881    -6.2211     6.2461 C.ar    
  17 C17            0.6883    -5.1280     5.4016 C.ar    
  18 S18            0.9040    -7.4468     8.6748 S.o2    
  19 O19            1.1978    -8.5779     7.8662 O.2     
  20 O20            1.6750    -7.0828     9.8115 O.2     
  21 C21            3.4437    -0.8249    -1.2548 C.ar    
  22 C22            4.3199     1.1406    -0.1690 C.ar    
  23 C23            5.4188     1.1271    -1.0227 C.ar    
  24 C24            5.5517     0.1665    -1.9791 C.ar    
  25 C25            4.5680    -0.8261    -2.1160 C.ar    
  26 C26            4.6764    -1.8331    -3.0943 C.ar    
  27 C27            3.6828    -2.7669    -3.1707 C.ar    
  28 C28            2.6014    -2.7046    -2.2943 C.ar    
  29 N29            2.5059    -1.7672    -1.3829 N.ar    
  30 N30           -0.6511    -7.6447     9.2083 N.am    
  31 C31            1.5149    -3.7441    -2.3944 C.3     
  32 C32            6.7501     0.1722    -2.8927 C.3     
  33 C33            4.2042     2.2184     0.8778 C.3     
  34 C34            1.4068    -2.3146     7.8300 C.3     
  35 C35            1.7955     2.1675    -0.8511 C.3     
  36 F36            0.8737     3.1991    -1.0591 F       
  37 F37            3.0920     2.6930    -0.8539 F       
  38 H38            1.8119     2.1589     1.3152 H       
  39 H39            1.2904    -0.9487    -0.9195 H       
  40 H40            1.8185    -1.0231     3.0759 H       
  41 H41            0.0639    -1.2570     2.8885 H       
  42 H42            0.8206    -1.8578     5.4205 H       
  43 H43            1.3214    -4.6576     9.1691 H       
  44 H44            0.5073    -7.2093     5.8495 H       
  45 H45            0.5123    -5.2617     4.3444 H       
  46 H46            6.1773     1.8898    -0.9257 H       
  47 H47            5.5217    -1.8660    -3.7657 H       
  48 H48            3.7350    -3.5525    -3.9099 H       
  49 H49           -0.9789    -8.5303     9.4298 H       
  50 H50           -1.2342    -6.8749     9.2994 H       
  51 H51            1.7599    -4.5889    -1.7507 H       
  52 H52            0.5663    -3.3098    -2.0786 H       
  53 H53            1.4326    -4.0854    -3.4263 H       
  54 H54            7.5498    -0.4191    -2.4467 H       
  55 H55            6.4746    -0.2572    -3.8560 H       
  56 H56            7.0927     1.1969    -3.0363 H       
  57 H57            4.6156     1.8558     1.8198 H       
  58 H58            4.7582     3.0997     0.5547 H       
  59 H59            3.1549     2.4794     1.0161 H       
  60 H60            0.4592    -1.8586     8.1169 H       
  61 H61            2.0529    -2.3908     8.7045 H       
  62 H62            1.8917    -1.6989     7.0725 H       
  63 H63            1.7008     1.4296    -1.6477 H       
@<TRIPOS>BOND
   1    1    2 2
   2    1    3 1
   3    2    5 1
   4    3    4 1
   5    3   35 1
   6    3   38 1
   7    4    5 1
   8    4   11 1
   9    5    6 1
  10    5   39 1
  11    6    7 1
  12    7    8 1
  13    7   40 1
  14    7   41 1
  15    8    9 2
  16    8   10 am
  17   10   12 1
  18   10   42 1
  19   11   21 ar
  20   11   22 ar
  21   12   13 ar
  22   12   17 ar
  23   13   14 ar
  24   13   34 1
  25   14   15 ar
  26   14   43 1
  27   15   16 ar
  28   15   18 1
  29   16   17 ar
  30   16   44 1
  31   17   45 1
  32   18   19 2
  33   18   20 2
  34   18   30 am
  35   21   25 ar
  36   21   29 ar
  37   22   23 ar
  38   22   33 1
  39   23   24 ar
  40   23   46 1
  41   24   25 ar
  42   24   32 1
  43   25   26 ar
  44   26   27 ar
  45   26   47 1
  46   27   28 ar
  47   27   48 1
  48   28   29 ar
  49   28   31 1
  50   30   49 1
  51   30   50 1
  52   31   51 1
  53   31   52 1
  54   31   53 1
  55   32   54 1
  56   32   55 1
  57   32   56 1
  58   33   57 1
  59   33   58 1
  60   33   59 1
  61   34   60 1
  62   34   61 1
  63   34   62 1
  64   35   36 1
  65   35   37 1
  66   35   63 1

#	End of record

