#	Name: ASD07930778
#	Creating user name:	WinNT
#	Creation time:	15. 06. 2019 21:13

#	Modifying user name:	WinNT
#	Modification time:	15. 06. 2019 21:13

#	Program:	/corina/corina34_cracker 3.40 0067  02.08.2006

@<TRIPOS>MOLECULE
ASD07930778
  49   51    0    0    0
SMALL
NO_CHARGES


@<TRIPOS>ATOM
   1 C1             3.3611    -2.9005     1.4051 C.3     
   2 N2             1.2756    -0.9337     0.5725 N.2     
   3 N3            -0.0230    -2.8363     0.1789 N.pl3   
   4 C4            -0.2223    -3.6983    -0.9909 C.3     
   5 C5             0.8033    -4.8399    -0.9588 C.3     
   6 S6             2.4689    -4.1093    -0.8812 S.o2    
   7 N7             2.3321    -3.0159     0.3687 N.am    
   8 C8             1.1953    -2.2202     0.3796 C.2     
   9 C9            -0.0335    -2.8776    -2.2683 C.3     
  10 O10            3.4167    -5.0624    -0.4202 O.2     
  11 O11            2.7234    -3.3107    -2.0287 O.2     
  12 C12           -1.6154    -4.2722    -0.9616 C.ar    
  13 C13           -2.0369    -5.0103     0.1318 C.ar    
  14 C14           -2.4727    -4.0571    -2.0226 C.ar    
  15 C15           -3.7563    -4.5862    -1.9952 C.ar    
  16 C16           -4.1750    -5.3306    -0.9007 C.ar    
  17 C17           -3.3162    -5.5387     0.1611 C.ar    
  18 F18           -1.1983    -5.2154     1.1710 F       
  19 N19           -4.6276    -4.3688    -3.0700 N.am    
  20 C20           -5.5108    -5.3228    -3.4252 C.2     
  21 N21           -6.3964    -5.0871    -4.4135 N.am    
  22 O22           -5.5089    -6.3962    -2.8539 O.2     
  23 C23           -7.4393    -6.0703    -4.7466 C.3     
  24 C24           -8.7908    -5.3479    -4.7832 C.3     
  25 O25           -8.6932    -4.2100    -5.6431 O.3     
  26 C26           -7.7538    -3.2249    -5.2060 C.3     
  27 C27           -6.3526    -3.8362    -5.1873 C.3     
  28 H28            4.1054    -2.1658     1.0980 H       
  29 H29            2.9006    -2.5821     2.3404 H       
  30 H30            3.8428    -3.8677     1.5482 H       
  31 H31            2.1405    -0.5171     0.7116 H       
  32 H32           -0.7477    -2.6964     0.8084 H       
  33 H33            0.6335    -5.4618    -0.0799 H       
  34 H34            0.7087    -5.4442    -1.8611 H       
  35 H35            0.9750    -2.4647    -2.2892 H       
  36 H36           -0.1817    -3.5187    -3.1372 H       
  37 H37           -0.7594    -2.0647    -2.2885 H       
  38 H38           -2.1453    -3.4774    -2.8730 H       
  39 H39           -5.1729    -5.7429    -0.8775 H       
  40 H40           -3.6415    -6.1178     1.0128 H       
  41 H41           -4.5952    -3.5316    -3.5589 H       
  42 H42           -7.2314    -6.5098    -5.7221 H       
  43 H43           -7.4617    -6.8528    -3.9881 H       
  44 H44           -9.5558    -6.0257    -5.1618 H       
  45 H45           -9.0571    -5.0225    -3.7775 H       
  46 H46           -7.7727    -2.3755    -5.8887 H       
  47 H47           -8.0163    -2.8918    -4.2019 H       
  48 H48           -5.6545    -3.1397    -4.7229 H       
  49 H49           -6.0329    -4.0525    -6.2066 H       
@<TRIPOS>BOND
   1    1    7 1
   2    1   28 1
   3    1   29 1
   4    1   30 1
   5    2    8 2
   6    2   31 1
   7    3    4 1
   8    3    8 1
   9    3   32 1
  10    4    5 1
  11    4    9 1
  12    4   12 1
  13    5    6 1
  14    5   33 1
  15    5   34 1
  16    6    7 am
  17    6   10 2
  18    6   11 2
  19    7    8 1
  20    9   35 1
  21    9   36 1
  22    9   37 1
  23   12   14 ar
  24   12   13 ar
  25   13   18 1
  26   13   17 ar
  27   14   15 ar
  28   14   38 1
  29   15   16 ar
  30   15   19 1
  31   16   17 ar
  32   16   39 1
  33   17   40 1
  34   19   20 am
  35   19   41 1
  36   20   21 am
  37   20   22 2
  38   21   23 1
  39   21   27 1
  40   23   24 1
  41   23   42 1
  42   23   43 1
  43   24   25 1
  44   24   44 1
  45   24   45 1
  46   25   26 1
  47   26   27 1
  48   26   46 1
  49   26   47 1
  50   27   48 1
  51   27   49 1

#	End of record

