#	Name: ASD02038596
#	Creating user name:	WinNT
#	Creation time:	15. 06. 2019 20:17

#	Modifying user name:	WinNT
#	Modification time:	15. 06. 2019 20:17

#	Program:	/corina/corina34_cracker 3.40 0067  02.08.2006

@<TRIPOS>MOLECULE
ASD02038596
  53   55    0    0    0
SMALL
NO_CHARGES


@<TRIPOS>ATOM
   1 C1            -0.0167     1.3805     0.0096 C.ar    
   2 C2             0.0021    -0.0041     0.0020 C.ar    
   3 C3            -1.1851    -0.7122     0.0100 C.ar    
   4 C4            -2.3965    -0.0336     0.0257 C.ar    
   5 C5            -2.4117     1.3555     0.0333 C.ar    
   6 C6            -1.2229     2.0583     0.0306 C.ar    
   7 N7            -3.5982    -0.7467     0.0333 N.pl3   
   8 C8            -4.8755    -0.0295     0.0499 C.3     
   9 C9            -6.0264    -1.0376     0.0553 C.3     
  10 N10           -7.3072    -0.3184     0.0719 N.3     
  11 C11           -8.4377    -1.2565     0.0776 C.3     
  12 C12           -9.7512    -0.4721     0.0948 C.3     
  13 O13           -9.8801     0.2679    -1.1208 O.3     
  14 C14          -11.0004     1.0246    -1.2671 C.ar    
  15 Cl15           1.4756     2.2675     0.0001 Cl      
  16 Cl16           1.5173    -0.8510    -0.0182 Cl      
  17 C17          -11.1892     1.7680    -2.4226 C.ar    
  18 C18          -11.9571     1.0485    -0.2631 C.ar    
  19 C19          -13.0951     1.8172    -0.4117 C.ar    
  20 C20          -13.2810     2.5654    -1.5646 C.ar    
  21 C21          -12.3272     2.5367    -2.5712 C.ar    
  22 O22          -14.4015     3.3218    -1.7110 O.3     
  23 C23          -15.8218     4.8383    -2.9075 C.ar    
  24 C24          -15.8567     6.1191    -2.3885 C.ar    
  25 C25          -17.0429     6.8288    -2.3787 C.ar    
  26 C26          -18.1941     6.2580    -2.8883 C.ar    
  27 C27          -18.1591     4.9776    -3.4081 C.ar    
  28 C28          -16.9732     4.2673    -3.4166 C.ar    
  29 C29          -14.5273     4.0669    -2.9239 C.3     
  30 H30           -1.1705    -1.7921     0.0037 H       
  31 H31           -3.3526     1.8855     0.0451 H       
  32 H32           -1.2347     3.1383     0.0368 H       
  33 H33           -3.5866    -1.7166     0.0277 H       
  34 H34           -4.9320     0.5913     0.9440 H       
  35 H35           -4.9494     0.6015    -0.8359 H       
  36 H36           -5.9699    -1.6584    -0.8388 H       
  37 H37           -5.9525    -1.6686     0.9411 H       
  38 H38           -7.3573     0.3129     0.8574 H       
  39 H39           -8.3978    -1.8788    -0.8164 H       
  40 H40           -8.3805    -1.8890     0.9635 H       
  41 H41          -10.5871    -1.1653     0.1886 H       
  42 H42           -9.7527     0.2154     0.9406 H       
  43 H43          -10.4462     1.7462    -3.2062 H       
  44 H44          -11.8124     0.4659     0.6347 H       
  45 H45          -13.8404     1.8352     0.3698 H       
  46 H46          -12.4717     3.1197    -3.4688 H       
  47 H47          -14.9572     6.5650    -1.9904 H       
  48 H48          -17.0702     7.8292    -1.9726 H       
  49 H49          -19.1210     6.8122    -2.8799 H       
  50 H50          -19.0587     4.5313    -3.8056 H       
  51 H51          -16.9460     3.2667    -3.8221 H       
  52 H52          -13.6917     4.7612    -3.0121 H       
  53 H53          -14.5227     3.3830    -3.7726 H       
@<TRIPOS>BOND
   1    1    2 ar
   2    1   15 1
   3    1    6 ar
   4    2    3 ar
   5    2   16 1
   6    3    4 ar
   7    3   30 1
   8    4    5 ar
   9    4    7 1
  10    5    6 ar
  11    5   31 1
  12    6   32 1
  13    7    8 1
  14    7   33 1
  15    8    9 1
  16    8   34 1
  17    8   35 1
  18    9   10 1
  19    9   36 1
  20    9   37 1
  21   10   11 1
  22   10   38 1
  23   11   12 1
  24   11   39 1
  25   11   40 1
  26   12   13 1
  27   12   41 1
  28   12   42 1
  29   13   14 1
  30   14   17 ar
  31   14   18 ar
  32   17   21 ar
  33   17   43 1
  34   18   19 ar
  35   18   44 1
  36   19   20 ar
  37   19   45 1
  38   20   21 ar
  39   20   22 1
  40   21   46 1
  41   22   29 1
  42   23   24 ar
  43   23   28 ar
  44   23   29 1
  45   24   25 ar
  46   24   47 1
  47   25   26 ar
  48   25   48 1
  49   26   27 ar
  50   26   49 1
  51   27   28 ar
  52   27   50 1
  53   28   51 1
  54   29   52 1
  55   29   53 1

#	End of record

