#	Name: ASD07930450
#	Creating user name:	WinNT
#	Creation time:	15. 06. 2019 21:12

#	Modifying user name:	WinNT
#	Modification time:	15. 06. 2019 21:12

#	Program:	/corina/corina34_cracker 3.40 0067  02.08.2006

@<TRIPOS>MOLECULE
ASD07930450
  51   54    0    0    0
SMALL
NO_CHARGES


@<TRIPOS>ATOM
   1 C1            -0.0360     1.3927    -0.2576 C.2     
   2 N2            11.9582     0.8368     0.1125 N.2     
   3 N3            10.6428     2.6608    -0.5233 N.pl3   
   4 C4            10.8142     4.1137    -0.4202 C.3     
   5 C5            11.5142     4.6317    -1.6842 C.3     
   6 S6            13.0873     3.7353    -1.8740 S.o2    
   7 N7            12.6233     2.1426    -1.7166 N.am    
   8 C8            11.7464     1.8478    -0.6824 C.2     
   9 C9            13.1166     1.1049    -2.6256 C.3     
  10 C10           11.6671     4.4417     0.8070 C.3     
  11 C11            9.4649     4.7714    -0.2867 C.ar    
  12 C12            8.3152     4.0122    -0.3783 C.ar    
  13 C13            7.0718     4.6188    -0.2548 C.ar    
  14 C14            6.9879     5.9880    -0.0395 C.ar    
  15 C15            8.1405     6.7437     0.0515 C.ar    
  16 C16            9.3790     6.1361    -0.0667 C.ar    
  17 N17            5.9054     3.8513    -0.3478 N.am    
  18 C18            4.8297     4.1668     0.4004 C.2     
  19 O19            4.9032     5.0563     1.2259 O.2     
  20 C20            3.5606     3.4315     0.2172 C.ar    
  21 O21           13.5684     3.8375    -3.2071 O.2     
  22 O22           13.9395     3.9709    -0.7615 O.2     
  23 C23            2.4473     3.7585     0.9920 C.ar    
  24 F24           10.5051     6.8771     0.0230 F       
  25 N25            1.3142     3.1027     0.8292 N.ar    
  26 C26            1.2336     2.1291    -0.0744 C.ar    
  27 C27            2.3524     1.8017    -0.8517 C.ar    
  28 N28            3.4790     2.4601    -0.6917 N.ar    
  29 C29           -0.1554     0.3348    -1.0827 C.2     
  30 S30           -1.7503    -0.2710    -1.0506 S.3     
  31 C31           -2.2470     0.9500     0.1114 C.2     
  32 C32           -1.2130     1.7310     0.4148 C.2     
  33 H33           12.7394     0.2759    -0.0138 H       
  34 H34            9.7556     2.2717    -0.4758 H       
  35 H35           10.8820     4.4527    -2.5539 H       
  36 H36           11.7094     5.6995    -1.5847 H       
  37 H37           14.0355     0.6774    -2.2245 H       
  38 H38           12.3648     0.3219    -2.7252 H       
  39 H39           13.3163     1.5433    -3.6033 H       
  40 H40           12.6434     3.9671     0.7083 H       
  41 H41           11.7941     5.5216     0.8831 H       
  42 H42           11.1715     4.0701     1.7038 H       
  43 H43            8.3827     2.9474    -0.5462 H       
  44 H44            6.0221     6.4617     0.0565 H       
  45 H45            8.0757     7.8087     0.2190 H       
  46 H46            5.8711     3.0922    -0.9507 H       
  47 H47            2.5133     4.5485     1.7255 H       
  48 H48            2.2881     1.0114    -1.5850 H       
  49 H49            0.6460    -0.0728    -1.6811 H       
  50 H50           -3.2414     1.0494     0.5209 H       
  51 H51           -1.2793     2.5541     1.1108 H       
@<TRIPOS>BOND
   1    1   29 2
   2    1   26 1
   3    1   32 1
   4    2    8 2
   5    2   33 1
   6    3    4 1
   7    3    8 1
   8    3   34 1
   9    4    5 1
  10    4   10 1
  11    4   11 1
  12    5    6 1
  13    5   35 1
  14    5   36 1
  15    6    7 am
  16    6   21 2
  17    6   22 2
  18    7    8 1
  19    7    9 1
  20    9   37 1
  21    9   38 1
  22    9   39 1
  23   10   40 1
  24   10   41 1
  25   10   42 1
  26   11   12 ar
  27   11   16 ar
  28   12   13 ar
  29   12   43 1
  30   13   14 ar
  31   13   17 1
  32   14   15 ar
  33   14   44 1
  34   15   16 ar
  35   15   45 1
  36   16   24 1
  37   17   18 am
  38   17   46 1
  39   18   19 2
  40   18   20 1
  41   20   23 ar
  42   20   28 ar
  43   23   25 ar
  44   23   47 1
  45   25   26 ar
  46   26   27 ar
  47   27   28 ar
  48   27   48 1
  49   29   30 1
  50   29   49 1
  51   30   31 1
  52   31   32 2
  53   31   50 1
  54   32   51 1

#	End of record

