#	Name: ASD01200012
#	Creating user name:	WinNT
#	Creation time:	15. 06. 2019 19:08

#	Modifying user name:	WinNT
#	Modification time:	15. 06. 2019 19:08

#	Program:	/corina/corina34_cracker 3.40 0067  02.08.2006

@<TRIPOS>MOLECULE
ASD01200012
  35   37    0    0    0
SMALL
NO_CHARGES


@<TRIPOS>ATOM
   1 C1            -0.0160     1.3873    -0.3067 C.2     
   2 N2             0.0091     0.0496    -0.4694 N.am    
   3 C3             1.2213    -0.6065    -0.6416 C.2     
   4 O4             1.0228     2.0200    -0.3106 O.2     
   5 C5            -1.3016     2.0836    -0.1303 C.ar    
   6 S6             1.3999    -2.2929    -0.8581 S.3     
   7 C7             3.1478    -2.1040    -0.9710 C.2     
   8 C8             3.4334    -0.8074    -0.8373 C.2     
   9 N9             2.3814    -0.0284    -0.6670 N.2     
  10 C10           -1.3261     3.4597     0.1454 C.ar    
  11 C11           -2.5422     4.1093     0.3099 C.ar    
  12 C12           -3.7251     3.4041     0.2029 C.ar    
  13 C13           -3.7071     2.0365    -0.0708 C.ar    
  14 C14           -2.5039     1.3779    -0.2423 C.ar    
  15 N15           -0.1354     4.1706     0.2538 N.pl3   
  16 F16           -4.9051     4.0419     0.3646 F       
  17 S17           -5.2224     1.1473    -0.2051 S.3     
  18 C18           -5.6617     1.0326     1.4974 C.2     
  19 N19           -5.0201     1.5939     2.4956 N.2     
  20 C20           -5.6402     1.2917     3.6482 C.2     
  21 C21           -6.7026     0.5179     3.3668 C.2     
  22 N22           -6.7277     0.3517     2.0007 N.pl3   
  23 C23           -7.7102    -0.4189     1.2344 C.3     
  24 H24           -0.8193    -0.4550    -0.4664 H       
  25 H25            3.8633    -2.8988    -1.1216 H       
  26 H26            4.4432    -0.4258    -0.8698 H       
  27 H27           -2.5633     5.1680     0.5224 H       
  28 H28           -2.4921     0.3191    -0.4546 H       
  29 H29            0.7126     3.6996     0.2513 H       
  30 H30           -0.1531     5.1373     0.3319 H       
  31 H31           -5.3369     1.6152     4.6330 H       
  32 H32           -7.4053     0.1079     4.0772 H       
  33 H33           -8.5407     0.2287     0.9535 H       
  34 H34           -7.2391    -0.8163     0.3354 H       
  35 H35           -8.0817    -1.2424     1.8443 H       
@<TRIPOS>BOND
   1    1    2 am
   2    1    4 2
   3    1    5 1
   4    2    3 1
   5    2   24 1
   6    3    6 1
   7    3    9 2
   8    5   10 ar
   9    5   14 ar
  10    6    7 1
  11    7    8 2
  12    7   25 1
  13    8    9 1
  14    8   26 1
  15   10   11 ar
  16   10   15 1
  17   11   12 ar
  18   11   27 1
  19   12   13 ar
  20   12   16 1
  21   13   14 ar
  22   13   17 1
  23   14   28 1
  24   15   29 1
  25   15   30 1
  26   17   18 1
  27   18   19 2
  28   18   22 1
  29   19   20 1
  30   20   21 2
  31   20   31 1
  32   21   22 1
  33   21   32 1
  34   22   23 1
  35   23   33 1
  36   23   34 1
  37   23   35 1

#	End of record

