#	Name: ASD03330576
#	Creating user name:	WinNT
#	Creation time:	15. 06. 2019 20:37

#	Modifying user name:	WinNT
#	Modification time:	15. 06. 2019 20:37

#	Program:	/corina/corina34_cracker 3.40 0067  02.08.2006

@<TRIPOS>MOLECULE
ASD03330576
  60   62    0    0    0
SMALL
NO_CHARGES


@<TRIPOS>ATOM
   1 C1            -0.5185     1.8029    -0.6133 C.2     
   2 N2            -0.6419     0.4709    -0.8566 N.pl3   
   3 C3             0.8136     2.0730    -0.5303 C.2     
   4 N4             1.4824     0.9176    -0.7392 N.2     
   5 C5             0.6169    -0.0482    -0.9416 C.2     
   6 C6             0.9505    -1.4626    -1.2156 C.ar    
   7 C7             1.4178     3.3898    -0.2614 C.2     
   8 O8             0.7068     4.3614    -0.0895 O.2     
   9 C9             3.3590     4.8266     0.0616 C.3     
  10 N10            2.7584     3.5174    -0.2058 N.am    
  11 C11            3.4211     5.0603     1.5724 C.3     
  12 C12            4.2264     3.9375     2.2294 C.3     
  13 C13            4.0965     6.4041     1.8533 C.3     
  14 C14            2.0024     5.0729     2.1451 C.3     
  15 C15            4.7527     4.8662    -0.5105 C.2     
  16 N16            5.3518     6.0506    -0.7444 N.am    
  17 O17            5.3352     3.8321    -0.7604 O.2     
  18 C18            6.6653     6.0919    -1.3918 C.3     
  19 C19           -1.9081    -0.2556    -0.9855 C.3     
  20 C20           -2.8412     0.5229    -1.9182 C.3     
  21 C21           -3.6399     1.5437    -1.1141 C.3     
  22 N22           -2.8496     2.0724    -0.0007 N.3     
  23 C23           -1.6556     2.7827    -0.4826 C.3     
  24 C24           -3.6661     2.9389     0.8598 C.3     
  25 C25            2.2094    -3.1079    -2.4370 C.ar    
  26 C26            1.5752    -4.1132    -1.7284 C.ar    
  27 C27            0.6263    -3.7999    -0.7690 C.ar    
  28 C28            0.3114    -2.4826    -0.5096 C.ar    
  29 C29            1.9028    -1.7836    -2.1864 C.ar    
  30 Cl30           1.9648    -5.7744    -2.0486 Cl      
  31 F31            2.5217    -0.8023    -2.8786 F       
  32 H32            2.7538     5.6056    -0.4020 H       
  33 H33            3.3255     2.7425    -0.3429 H       
  34 H34            5.2371     3.9285     1.8214 H       
  35 H35            4.2706     4.1040     3.3058 H       
  36 H36            3.7452     2.9802     2.0293 H       
  37 H37            3.5072     7.2067     1.4097 H       
  38 H38            4.1667     6.5574     2.9301 H       
  39 H39            5.0967     6.4056     1.4201 H       
  40 H40            1.5212     4.1156     1.9450 H       
  41 H41            2.0466     5.2394     3.2214 H       
  42 H42            1.4287     5.8728     1.6770 H       
  43 H43            4.9132     6.8757    -0.4840 H       
  44 H44            6.5993     5.6310    -2.3773 H       
  45 H45            6.9866     7.1282    -1.4960 H       
  46 H46            7.3874     5.5471    -0.7836 H       
  47 H47           -1.7196    -1.2452    -1.4018 H       
  48 H48           -2.3729    -0.3545    -0.0046 H       
  49 H49           -2.2498     1.0394    -2.6741 H       
  50 H50           -3.5264    -0.1701    -2.4065 H       
  51 H51           -3.9308     2.3657    -1.7682 H       
  52 H52           -4.5372     1.0661    -0.7207 H       
  53 H53           -1.3843     3.5634     0.2281 H       
  54 H54           -1.8650     3.2298    -1.4544 H       
  55 H55           -4.5008     2.3665     1.2645 H       
  56 H56           -3.0547     3.3180     1.6786 H       
  57 H57           -4.0489     3.7752     0.2747 H       
  58 H58            2.9484    -3.3583    -3.1837 H       
  59 H59            0.1351    -4.5894    -0.2196 H       
  60 H60           -0.4285    -2.2408     0.2391 H       
@<TRIPOS>BOND
   1    1    2 1
   2    1    3 2
   3    1   23 1
   4    2   19 1
   5    2    5 1
   6    3    4 1
   7    3    7 1
   8    4    5 2
   9    5    6 1
  10    6   29 ar
  11    6   28 ar
  12    7    8 2
  13    7   10 am
  14    9   10 1
  15    9   11 1
  16    9   15 1
  17    9   32 1
  18   10   33 1
  19   11   12 1
  20   11   13 1
  21   11   14 1
  22   12   34 1
  23   12   35 1
  24   12   36 1
  25   13   37 1
  26   13   38 1
  27   13   39 1
  28   14   40 1
  29   14   41 1
  30   14   42 1
  31   15   16 am
  32   15   17 2
  33   16   18 1
  34   16   43 1
  35   18   44 1
  36   18   45 1
  37   18   46 1
  38   19   20 1
  39   19   47 1
  40   19   48 1
  41   20   21 1
  42   20   49 1
  43   20   50 1
  44   21   22 1
  45   21   51 1
  46   21   52 1
  47   22   23 1
  48   22   24 1
  49   23   53 1
  50   23   54 1
  51   24   55 1
  52   24   56 1
  53   24   57 1
  54   25   26 ar
  55   25   29 ar
  56   25   58 1
  57   26   27 ar
  58   26   30 1
  59   27   28 ar
  60   27   59 1
  61   28   60 1
  62   29   31 1

#	End of record

