#	Name: ASD01028007
#	Creating user name:	WinNT
#	Creation time:	15. 06. 2019 18:56

#	Modifying user name:	WinNT
#	Modification time:	15. 06. 2019 18:56

#	Program:	/corina/corina34_cracker 3.40 0067  02.08.2006

@<TRIPOS>MOLECULE
ASD01028007
  61   64    0    0    0
SMALL
NO_CHARGES


@<TRIPOS>ATOM
   1 C1            -0.0304     1.4617     0.0150 C.3     
   2 C2            -0.0113    -0.0624     0.0296 C.3     
   3 C3             0.6049    -0.6068     1.3287 C.3     
   4 C4            -0.2172    -0.0608     2.4802 C.3     
   5 C5            -0.0323     1.4812     2.4755 C.3     
   6 C6            -0.7486     2.0227     1.2545 C.3     
   7 C7             0.2750    -0.4261     3.8850 C.3     
   8 C8            -0.3337     0.6957     4.7700 C.3     
   9 C9            -0.5806     1.9049     3.8338 C.3     
  10 C10            0.7849    -0.5960    -1.1580 C.3     
  11 C11            1.9389    -1.4592    -0.6502 C.3     
  12 C12            1.3800    -2.6528     0.1234 C.3     
  13 C13            0.5595    -2.1350     1.3103 C.3     
  14 C14            1.2865     0.5208    -2.0196 C.2     
  15 C15            2.4541     0.4677    -2.6532 C.2     
  16 C16            3.3263    -0.7040    -2.5249 C.2     
  17 C17            2.7666    -1.9391    -1.8471 C.3     
  18 C18           -2.0560     2.1953     3.7338 C.2     
  19 C19           -2.5327     3.6078     3.5135 C.3     
  20 O20           -3.9834     3.6253     3.4535 O.3     
  21 C21           -4.5710     4.8165     3.2603 C.2     
  22 C22           -6.0732     4.9127     3.1870 C.3     
  23 O23           -3.8956     5.8117     3.1452 O.2     
  24 O24           -2.8563     1.2961     3.8303 O.2     
  25 O25            0.1198     3.0541     4.3140 O.3     
  26 C26            0.6482     1.0814     5.8782 C.3     
  27 O27            1.3137     1.9464    -0.0066 O.3     
  28 C28           -0.1377    -1.4677    -2.0124 C.3     
  29 O29            4.4630    -0.6855    -2.9489 O.2     
  30 H30           -0.5475     1.8036    -0.8815 H       
  31 H31           -1.0346    -0.4282    -0.0548 H       
  32 H32            1.6352    -0.2624     1.4182 H       
  33 H33           -1.2682    -0.3200     2.3528 H       
  34 H34            1.0287     1.7242     2.4174 H       
  35 H35           -0.7009     3.1116     1.2493 H       
  36 H36           -1.7885     1.6963     1.2597 H       
  37 H37           -0.1050    -1.4028     4.1849 H       
  38 H38            1.3639    -0.4045     3.9299 H       
  39 H39           -1.2756     0.3601     5.2041 H       
  40 H40            2.5726    -0.8654     0.0085 H       
  41 H41            0.7409    -3.2453    -0.5313 H       
  42 H42            2.2020    -3.2684     0.4887 H       
  43 H43            0.9785    -2.5226     2.2389 H       
  44 H44           -0.4739    -2.4671     1.2105 H       
  45 H45            0.6755     1.4044    -2.1312 H       
  46 H46            2.7639     1.2979    -3.2705 H       
  47 H47            3.5817    -2.5765    -1.5043 H       
  48 H48            2.1309    -2.4883    -2.5416 H       
  49 H49           -2.1956     4.2376     4.3368 H       
  50 H50           -2.1257     3.9866     2.5760 H       
  51 H51           -6.4757     5.0808     4.1859 H       
  52 H52           -6.3529     5.7426     2.5382 H       
  53 H53           -6.4774     3.9841     2.7839 H       
  54 H54           -0.1583     3.3454     5.1932 H       
  55 H55            1.5851     1.4162     5.4331 H       
  56 H56            0.2222     1.8864     6.4770 H       
  57 H57            0.8367     0.2162     6.5139 H       
  58 H58            1.3839     2.9108    -0.0168 H       
  59 H59           -0.9770    -0.8695    -2.3671 H       
  60 H60            0.4176    -1.8566    -2.8659 H       
  61 H61           -0.5110    -2.2979    -1.4129 H       
@<TRIPOS>BOND
   1    1    2 1
   2    1   27 1
   3    1    6 1
   4    1   30 1
   5    2    3 1
   6    2   10 1
   7    2   31 1
   8    3    4 1
   9    3   13 1
  10    3   32 1
  11    4    5 1
  12    4    7 1
  13    4   33 1
  14    5    6 1
  15    5    9 1
  16    5   34 1
  17    6   35 1
  18    6   36 1
  19    7    8 1
  20    7   37 1
  21    7   38 1
  22    8    9 1
  23    8   26 1
  24    8   39 1
  25    9   18 1
  26    9   25 1
  27   10   11 1
  28   10   14 1
  29   10   28 1
  30   11   12 1
  31   11   17 1
  32   11   40 1
  33   12   13 1
  34   12   41 1
  35   12   42 1
  36   13   43 1
  37   13   44 1
  38   14   15 2
  39   14   45 1
  40   15   16 1
  41   15   46 1
  42   16   17 1
  43   16   29 2
  44   17   47 1
  45   17   48 1
  46   18   19 1
  47   18   24 2
  48   19   20 1
  49   19   49 1
  50   19   50 1
  51   20   21 1
  52   21   22 1
  53   21   23 2
  54   22   51 1
  55   22   52 1
  56   22   53 1
  57   25   54 1
  58   26   55 1
  59   26   56 1
  60   26   57 1
  61   27   58 1
  62   28   59 1
  63   28   60 1
  64   28   61 1

#	End of record

