#	Name: ASD04840017
#	Creating user name:	WinNT
#	Creation time:	15. 06. 2019 20:52

#	Modifying user name:	WinNT
#	Modification time:	15. 06. 2019 20:52

#	Program:	/corina/corina34_cracker 3.40 0067  02.08.2006

@<TRIPOS>MOLECULE
ASD04840017
  31   33    0    0    0
SMALL
NO_CHARGES


@<TRIPOS>ATOM
   1 Cl1            0.0021    -0.0041     0.0020 Cl      
   2 C2            -0.0215     1.7317     0.0116 C.ar    
   3 C3             1.1448     2.4511     0.0043 C.ar    
   4 C4             1.1013     3.8392     0.0122 C.ar    
   5 N5            -0.0402     4.4909     0.0267 N.ar    
   6 C6            -1.2045     3.8488     0.0343 C.ar    
   7 C7            -1.2376     2.4369     0.0211 C.ar    
   8 C8            -2.4757     1.7565     0.0283 C.ar    
   9 C9            -3.6459     2.4270     0.0479 C.ar    
  10 C10           -3.6829     3.8407     0.0620 C.ar    
  11 C11           -2.4772     4.5772     0.0500 C.ar    
  12 C12           -2.5175     5.9731     0.0631 C.ar    
  13 C13           -3.7229     6.6146     0.0874 C.ar    
  14 C14           -4.9113     5.8938     0.0992 C.ar    
  15 C15           -4.9040     4.5299     0.0818 C.ar    
  16 C16            2.3925     4.6161     0.0046 C.3     
  17 P17            2.8974     4.9388    -1.7172 P.3     
  18 O18            1.7958     5.6178    -2.4353 O.2     
  19 O19            4.2040     5.8794    -1.7260 O.3     
  20 O20            3.2351     3.5443    -2.4477 O.3     
  21 H21            2.0960     1.9397    -0.0072 H       
  22 H22           -2.4854     0.6765     0.0177 H       
  23 H23           -4.5732     1.8733     0.0526 H       
  24 H24           -1.5999     6.5425     0.0544 H       
  25 H25           -3.7530     7.6942     0.0978 H       
  26 H26           -5.8537     6.4210     0.1187 H       
  27 H27           -5.8351     3.9827     0.0913 H       
  28 H28            2.2497     5.5632     0.5249 H       
  29 H29            3.1674     4.0381     0.5082 H       
  30 H30            4.5292     6.0925    -2.6114 H       
  31 H31            3.9495     3.0443    -2.0298 H       
@<TRIPOS>BOND
   1    1    2 1
   2    2    3 ar
   3    2    7 ar
   4    3    4 ar
   5    3   21 1
   6    4    5 ar
   7    4   16 1
   8    5    6 ar
   9    6    7 ar
  10    6   11 ar
  11    7    8 ar
  12    8    9 ar
  13    8   22 1
  14    9   10 ar
  15    9   23 1
  16   10   11 ar
  17   10   15 ar
  18   11   12 ar
  19   12   13 ar
  20   12   24 1
  21   13   14 ar
  22   13   25 1
  23   14   15 ar
  24   14   26 1
  25   15   27 1
  26   16   17 1
  27   16   28 1
  28   16   29 1
  29   17   18 2
  30   17   19 1
  31   17   20 1
  32   19   30 1
  33   20   31 1

#	End of record

