#	Name: ASD09116362
#	Creating user name:	WinNT
#	Creation time:	15. 06. 2019 21:21

#	Modifying user name:	WinNT
#	Modification time:	15. 06. 2019 21:21

#	Program:	/corina/corina34_cracker 3.40 0067  02.08.2006

@<TRIPOS>MOLECULE
ASD09116362
  79   84    0    0    0
SMALL
NO_CHARGES


@<TRIPOS>ATOM
   1 N1            -0.0591     1.5279    -0.5292 N.2     
   2 N2            -0.0823     0.2494    -1.1094 N.pl3   
   3 C3             1.1948     1.9116    -0.4985 C.2     
   4 N4             1.9588     0.9478    -1.0258 N.2     
   5 C5             1.2028    -0.0622    -1.3994 C.2     
   6 N6             1.6430    -1.2346    -1.9838 N.pl3   
   7 C7            -1.2078    -0.5433    -1.3414 C.ar    
   8 N8             1.6572     3.1282     0.0030 N.pl3   
   9 C9             3.0333     3.3745     0.0839 C.ar    
  10 C10            3.5138     4.6735    -0.0230 C.ar    
  11 C11            3.9167     2.3210     0.2766 C.ar    
  12 C12            5.2747     2.5631     0.3570 C.ar    
  13 C13            5.7566     3.8594     0.2447 C.ar    
  14 C14            4.8720     4.9161     0.0568 C.ar    
  15 N15            7.1339     4.1045     0.3268 N.3     
  16 F16            5.3406     6.1785    -0.0530 F       
  17 N17           -1.1865    -1.4602    -2.2972 N.ar    
  18 N18           -2.1984    -2.2091    -2.5576 N.ar    
  19 C19           -3.3307    -2.1056    -1.8805 C.ar    
  20 C20           -3.4384    -1.1796    -0.8390 C.ar    
  21 C21           -2.3546    -0.3735    -0.5616 C.ar    
  22 C22           -4.5158    -2.9294    -2.2140 C.ar    
  23 C23           -5.7518    -2.3005    -2.3717 C.ar    
  24 C24           -5.8380    -0.8033    -2.2549 C.3     
  25 C25           -5.7907    -0.3549    -0.7968 C.3     
  26 C26           -4.7035    -1.1076    -0.0344 C.3     
  27 C27            7.6708     3.6633     1.6204 C.3     
  28 C28            9.1401     4.0767     1.7322 C.3     
  29 C29            9.9325     3.4417     0.5862 C.3     
  30 C30            9.3231     3.8787    -0.7488 C.3     
  31 C31            7.8486     3.4710    -0.7887 C.3     
  32 N32           11.3286     3.8808     0.6542 N.am    
  33 O33           12.0208     2.0681    -0.4255 O.2     
  34 C34           12.3015     3.1190     0.1160 C.2     
  35 C35           -4.4121    -4.3077    -2.3657 C.ar    
  36 C36           -5.5406    -5.0505    -2.6541 C.ar    
  37 C37           -6.7672    -4.4260    -2.7891 C.ar    
  38 C38           -6.8731    -3.0532    -2.6471 C.ar    
  39 O39           13.5845     3.5225     0.1785 O.3     
  40 C40           14.5793     2.6519    -0.4221 C.3     
  41 C41           14.2743     2.4803    -1.9115 C.3     
  42 C42           15.9678     3.2719    -0.2539 C.3     
  43 C43           14.5439     1.2859     0.2664 C.3     
  44 H44            2.5890    -1.3669    -2.1527 H       
  45 H45            1.0060    -1.9252    -2.2250 H       
  46 H46            1.0256     3.8037     0.2958 H       
  47 H47            2.8262     5.4935    -0.1689 H       
  48 H48            3.5423     1.3118     0.3641 H       
  49 H49            5.9612     1.7431     0.5076 H       
  50 H50           -2.3934     0.3667     0.2239 H       
  51 H51           -5.0029    -0.3550    -2.7931 H       
  52 H52           -6.7723    -0.4640    -2.7022 H       
  53 H53           -5.5824     0.7143    -0.7568 H       
  54 H54           -6.7564    -0.5493    -0.3301 H       
  55 H55           -5.0503    -2.1186     0.1795 H       
  56 H56           -4.5022    -0.5923     0.9048 H       
  57 H57            7.1012     4.1253     2.4267 H       
  58 H58            7.5920     2.5787     1.6954 H       
  59 H59            9.2183     5.1622     1.6711 H       
  60 H60            9.5426     3.7354     2.6859 H       
  61 H61            9.8867     2.3559     0.6695 H       
  62 H62            9.4043     4.9611    -0.8489 H       
  63 H63            9.8565     3.3959    -1.5677 H       
  64 H64            7.7690     2.3874    -0.7024 H       
  65 H65            7.4081     3.7934    -1.7321 H       
  66 H66           11.5526     4.7197     1.0865 H       
  67 H67           -3.4543    -4.7950    -2.2584 H       
  68 H68           -5.4647    -6.1211    -2.7748 H       
  69 H69           -7.6474    -5.0128    -3.0064 H       
  70 H70           -7.8342    -2.5719    -2.7525 H       
  71 H71           14.2995     3.4534    -2.4020 H       
  72 H72           15.0211     1.8268    -2.3624 H       
  73 H73           13.2851     2.0386    -2.0313 H       
  74 H74           16.1851     3.3941     0.8072 H       
  75 H75           16.7146     2.6183    -0.7047 H       
  76 H76           15.9931     4.2450    -0.7443 H       
  77 H77           13.5546     0.8442     0.1466 H       
  78 H78           15.2906     0.6324    -0.1845 H       
  79 H79           14.7611     1.4081     1.3275 H       
@<TRIPOS>BOND
   1    1    2 1
   2    1    3 2
   3    2    7 1
   4    2    5 1
   5    3    4 1
   6    3    8 1
   7    4    5 2
   8    5    6 1
   9    6   44 1
  10    6   45 1
  11    7   17 ar
  12    7   21 ar
  13    8    9 1
  14    8   46 1
  15    9   10 ar
  16    9   11 ar
  17   10   14 ar
  18   10   47 1
  19   11   12 ar
  20   11   48 1
  21   12   13 ar
  22   12   49 1
  23   13   14 ar
  24   13   15 1
  25   14   16 1
  26   15   27 1
  27   15   31 1
  28   17   18 ar
  29   18   19 ar
  30   19   20 ar
  31   19   22 1
  32   20   21 ar
  33   20   26 1
  34   21   50 1
  35   22   23 ar
  36   22   35 ar
  37   23   24 1
  38   23   38 ar
  39   24   25 1
  40   24   51 1
  41   24   52 1
  42   25   26 1
  43   25   53 1
  44   25   54 1
  45   26   55 1
  46   26   56 1
  47   27   28 1
  48   27   57 1
  49   27   58 1
  50   28   29 1
  51   28   59 1
  52   28   60 1
  53   29   30 1
  54   29   32 1
  55   29   61 1
  56   30   31 1
  57   30   62 1
  58   30   63 1
  59   31   64 1
  60   31   65 1
  61   32   34 am
  62   32   66 1
  63   33   34 2
  64   34   39 1
  65   35   36 ar
  66   35   67 1
  67   36   37 ar
  68   36   68 1
  69   37   38 ar
  70   37   69 1
  71   38   70 1
  72   39   40 1
  73   40   41 1
  74   40   42 1
  75   40   43 1
  76   41   71 1
  77   41   72 1
  78   41   73 1
  79   42   74 1
  80   42   75 1
  81   42   76 1
  82   43   77 1
  83   43   78 1
  84   43   79 1

#	End of record

