#	Name: ASD01910599
#	Creating user name:	WinNT
#	Creation time:	15. 06. 2019 19:56

#	Modifying user name:	WinNT
#	Modification time:	15. 06. 2019 19:56

#	Program:	/corina/corina34_cracker 3.40 0067  02.08.2006

@<TRIPOS>MOLECULE
ASD01910599
  44   47    0    0    0
SMALL
NO_CHARGES


@<TRIPOS>ATOM
   1 C1            -0.6694     1.8348    -1.9796 C.ar    
   2 C2            -0.7398     0.4759    -1.7130 C.ar    
   3 C3             0.3292    -0.1758    -1.1197 C.ar    
   4 C4             1.4723     0.5265    -0.7902 C.ar    
   5 C5             1.5475     1.8976    -1.0573 C.ar    
   6 C6             0.4656     2.5468    -1.6555 C.ar    
   7 C7             2.7655     2.6552    -0.7077 C.2     
   8 N8             2.9752     3.9462    -0.9006 N.2     
   9 C9             4.2093     4.1841    -0.4303 C.2     
  10 N10            4.6845     3.0589     0.0161 N.2     
  11 O11            3.8734     2.1686    -0.1269 O.3     
  12 C12            4.9168     5.5147    -0.4212 C.3     
  13 C13            5.2535     5.9043     1.0200 C.3     
  14 C14            5.9426     7.2707     1.0331 C.3     
  15 C15            7.2488     7.1870     0.2371 C.3     
  16 N16            6.9514     6.6740    -1.1072 N.am    
  17 C17            6.2113     5.4111    -1.2336 C.3     
  18 C18            7.3498     7.3492    -2.2035 C.2     
  19 C19            8.0190     8.6586    -2.0620 C.ar    
  20 O20            7.1585     6.8807    -3.3088 O.2     
  21 C21            9.1019     8.8013    -1.1924 C.ar    
  22 C22            9.7237    10.0252    -1.0632 C.ar    
  23 C23            9.2759    11.1139    -1.7941 C.ar    
  24 C24            8.1990    10.9789    -2.6606 C.ar    
  25 C25            7.5741     9.7564    -2.8019 C.ar    
  26 F26            9.8887    12.3108    -1.6632 F       
  27 F27            2.5144    -0.1090    -0.2112 F       
  28 F28           -1.8555    -0.2154    -2.0329 F       
  29 F29            7.7664    12.0439    -3.3704 F       
  30 H30           -1.5045     2.3360    -2.4464 H       
  31 H31            0.2686    -1.2344    -0.9141 H       
  32 H32            0.5180     3.6052    -1.8641 H       
  33 H33            4.2700     6.2736    -0.8616 H       
  34 H34            4.3360     5.9547     1.6064 H       
  35 H35            5.9196     5.1575     1.4519 H       
  36 H36            5.2867     8.0133     0.5788 H       
  37 H37            6.1611     7.5581     2.0616 H       
  38 H38            7.6937     8.1791     0.1595 H       
  39 H39            7.9411     6.5123     0.7408 H       
  40 H40            6.8190     4.5915    -0.8499 H       
  41 H41            5.9716     5.2314    -2.2816 H       
  42 H42            9.4519     7.9541    -0.6213 H       
  43 H43           10.5614    10.1356    -0.3905 H       
  44 H44            6.7368     9.6513    -3.4759 H       
@<TRIPOS>BOND
   1    1    2 ar
   2    1    6 ar
   3    1   30 1
   4    2    3 ar
   5    2   28 1
   6    3    4 ar
   7    3   31 1
   8    4    5 ar
   9    4   27 1
  10    5    6 ar
  11    5    7 1
  12    6   32 1
  13    7    8 2
  14    7   11 1
  15    8    9 1
  16    9   10 2
  17    9   12 1
  18   10   11 1
  19   12   13 1
  20   12   17 1
  21   12   33 1
  22   13   14 1
  23   13   34 1
  24   13   35 1
  25   14   15 1
  26   14   36 1
  27   14   37 1
  28   15   16 1
  29   15   38 1
  30   15   39 1
  31   16   17 1
  32   16   18 am
  33   17   40 1
  34   17   41 1
  35   18   19 1
  36   18   20 2
  37   19   21 ar
  38   19   25 ar
  39   21   22 ar
  40   21   42 1
  41   22   23 ar
  42   22   43 1
  43   23   24 ar
  44   23   26 1
  45   24   25 ar
  46   24   29 1
  47   25   44 1

#	End of record

