#	Name: ASD02610015
#	Creating user name:	WinNT
#	Creation time:	15. 06. 2019 20:25

#	Modifying user name:	WinNT
#	Modification time:	15. 06. 2019 20:25

#	Program:	/corina/corina34_cracker 3.40 0067  02.08.2006

@<TRIPOS>MOLECULE
ASD02610015
  94   96    0    0    0
SMALL
NO_CHARGES


@<TRIPOS>ATOM
   1 C1            -0.7270     2.9483     0.3302 C.3     
   2 C2            -0.5967     1.4380     0.0366 C.3     
   3 C3             0.8563     1.1946    -0.2840 C.2     
   4 C4             1.5660     2.2817    -0.1836 C.2     
   5 C5             0.7180     3.4221     0.3076 C.3     
   6 C6             3.0065     2.4582    -0.6058 C.3     
   7 C7             3.6856     3.4607     0.3084 C.3     
   8 C8             3.4865     4.8925    -0.0853 C.3     
   9 C9             2.1880     5.4638     0.4120 C.3     
  10 C10            0.9957     4.7619    -0.2420 C.3     
  11 O11           -1.4257     1.0771    -1.0996 O.3     
  12 C12            1.4203    -0.1473    -0.6743 C.3     
  13 O13           -1.3203     3.1689     1.6369 O.3     
  14 H14            0.9818     3.5088     1.3616 H       
  15 O15           -0.1840     5.5895    -0.0637 O.3     
  16 C16            1.2704     4.6274    -1.7411 C.3     
  17 O17            3.5142     4.9869    -1.5340 O.3     
  18 C18            3.9652     6.1360    -2.0612 C.2     
  19 C19            4.0229     6.3071    -3.5573 C.3     
  20 O20            4.3248     7.0332    -1.3362 O.2     
  21 O21            3.7789     1.2364    -0.4391 O.3     
  22 C22            5.0714     1.5713    -0.2435 C.2     
  23 C23            5.1560     3.0045     0.2553 C.3     
  24 O24            3.1845     3.2829     1.6595 O.3     
  25 C25            4.5702     7.6964    -3.8911 C.3     
  26 C26            4.6288     7.8701    -5.4100 C.3     
  27 C27           -2.6559     3.2937     1.6867 C.2     
  28 C28           -3.3424     3.5245     3.0082 C.3     
  29 C29           -4.8526     3.6299     2.7868 C.3     
  30 C30           -5.5496     3.8642     4.1285 C.3     
  31 C31           -7.0599     3.9696     3.9071 C.3     
  32 C32           -7.7569     4.2039     5.2488 C.3     
  33 O33           -3.3076     3.2210     0.6719 O.2     
  34 O34            6.0165     0.8433    -0.4351 O.2     
  35 O35            5.8994     3.8117    -0.6600 O.3     
  36 C36           -9.2671     4.3092     5.0274 C.3     
  37 C37           -9.9641     4.5435     6.3691 C.3     
  38 C38            5.7844     3.0524     1.6495 C.3     
  39 C39           -0.5369     5.8840     1.1974 C.2     
  40 C40           -1.7745     6.7021     1.4620 C.3     
  41 O41            0.1378     5.4933     2.1204 O.2     
  42 C42           -1.9214    -0.1701    -1.1206 C.2     
  43 C43           -2.7903    -0.6164    -2.2681 C.3     
  44 O44           -1.6709    -0.9350    -0.2194 O.2     
  45 C45            3.3387     2.0693     2.2120 C.2     
  46 C46            2.8716     1.8187     3.6226 C.3     
  47 O47            3.8522     1.1779     1.5782 O.2     
  48 H48           -1.3081     3.4440    -0.4475 H       
  49 H49           -0.8889     0.8594     0.9130 H       
  50 H50            3.0521     2.8047    -1.6383 H       
  51 H51            4.3078     5.4847     0.3183 H       
  52 H52            2.1306     5.3352     1.4928 H       
  53 H53            2.1510     6.5274     0.1761 H       
  54 H54            0.6209    -0.8882    -0.6848 H       
  55 H55            1.8658    -0.0795    -1.6668 H       
  56 H56            2.1820    -0.4448     0.0464 H       
  57 H57            0.3508     4.3484    -2.2554 H       
  58 H58            1.6306     5.5793    -2.1314 H       
  59 H59            2.0257     3.8586    -1.9045 H       
  60 H60            4.6765     5.5468    -3.9850 H       
  61 H61            3.0213     6.2014    -3.9741 H       
  62 H62            3.9166     8.4567    -3.4634 H       
  63 H63            5.5718     7.8021    -3.4744 H       
  64 H64            5.0186     8.8598    -5.6478 H       
  65 H65            5.2823     7.1097    -5.8377 H       
  66 H66            3.6271     7.7644    -5.8268 H       
  67 H67           -3.1306     2.6911     3.6781 H       
  68 H68           -2.9748     4.4497     3.4519 H       
  69 H69           -5.0644     4.4633     2.1170 H       
  70 H70           -5.2202     2.7046     2.3431 H       
  71 H71           -5.3379     3.0308     4.7984 H       
  72 H72           -5.1820     4.7894     4.5722 H       
  73 H73           -7.2716     4.8029     3.2373 H       
  74 H74           -7.4275     3.0443     3.4634 H       
  75 H75           -7.5451     3.3705     5.9187 H       
  76 H76           -7.3893     5.1291     5.6925 H       
  77 H77            6.8322     3.5671    -0.7321 H       
  78 H78           -9.4788     5.1426     4.3576 H       
  79 H79           -9.6347     3.3840     4.5837 H       
  80 H80          -11.0400     4.6186     6.2114 H       
  81 H81           -9.7524     3.7102     7.0390 H       
  82 H82           -9.5965     5.4688     6.8129 H       
  83 H83            5.3544     2.2654     2.2690 H       
  84 H84            6.8611     2.9032     1.5680 H       
  85 H85            5.5854     4.0226     2.1046 H       
  86 H86           -2.6324     6.0384     1.5704 H       
  87 H87           -1.6414     7.2763     2.3788 H       
  88 H88           -1.9451     7.3831     0.6282 H       
  89 H89           -2.2294    -0.5403    -3.1996 H       
  90 H90           -3.0959    -1.6509    -2.1115 H       
  91 H91           -3.6741     0.0191    -2.3232 H       
  92 H92            1.7994     2.0036     3.6886 H       
  93 H93            3.0792     0.7841     3.8957 H       
  94 H94            3.3981     2.4870     4.3039 H       
@<TRIPOS>BOND
   1    1    2 1
   2    1    5 1
   3    1   13 1
   4    1   48 1
   5    2    3 1
   6    2   11 1
   7    2   49 1
   8    3    4 2
   9    3   12 1
  10    4    5 1
  11    4    6 1
  12    5   10 1
  13    5   14 1
  14    6    7 1
  15    6   21 1
  16    6   50 1
  17    7   23 1
  18    7   24 1
  19    7    8 1
  20    8    9 1
  21    8   17 1
  22    8   51 1
  23    9   10 1
  24    9   52 1
  25    9   53 1
  26   10   15 1
  27   10   16 1
  28   11   42 1
  29   12   54 1
  30   12   55 1
  31   12   56 1
  32   13   27 1
  33   15   39 1
  34   16   57 1
  35   16   58 1
  36   16   59 1
  37   17   18 1
  38   18   19 1
  39   18   20 2
  40   19   25 1
  41   19   60 1
  42   19   61 1
  43   21   22 1
  44   22   23 1
  45   22   34 2
  46   23   35 1
  47   23   38 1
  48   24   45 1
  49   25   26 1
  50   25   62 1
  51   25   63 1
  52   26   64 1
  53   26   65 1
  54   26   66 1
  55   27   28 1
  56   27   33 2
  57   28   29 1
  58   28   67 1
  59   28   68 1
  60   29   30 1
  61   29   69 1
  62   29   70 1
  63   30   31 1
  64   30   71 1
  65   30   72 1
  66   31   32 1
  67   31   73 1
  68   31   74 1
  69   32   36 1
  70   32   75 1
  71   32   76 1
  72   35   77 1
  73   36   37 1
  74   36   78 1
  75   36   79 1
  76   37   80 1
  77   37   81 1
  78   37   82 1
  79   38   83 1
  80   38   84 1
  81   38   85 1
  82   39   40 1
  83   39   41 2
  84   40   86 1
  85   40   87 1
  86   40   88 1
  87   42   43 1
  88   42   44 2
  89   43   89 1
  90   43   90 1
  91   43   91 1
  92   45   46 1
  93   45   47 2
  94   46   92 1
  95   46   93 1
  96   46   94 1

#	End of record

