#	Name: ASD01883283
#	Creating user name:	WinNT
#	Creation time:	15. 06. 2019 19:46

#	Modifying user name:	WinNT
#	Modification time:	15. 06. 2019 19:46

#	Program:	/corina/corina34_cracker 3.40 0067  02.08.2006

@<TRIPOS>MOLECULE
ASD01883283
  54   57    0    0    0
SMALL
NO_CHARGES


@<TRIPOS>ATOM
   1 N1            -0.0160     1.3415     0.0128 N.am    
   2 C2            -0.0042     0.0055    -0.1498 C.2     
   3 C3            -1.2224    -0.7174    -0.1479 C.2     
   4 C4            -2.4262    -0.0110     0.0260 C.2     
   5 C5            -2.3720     1.3874     0.1913 C.2     
   6 C6            -1.1784     2.0223     0.1858 C.2     
   7 O7             1.0538    -0.5818    -0.2990 O.2     
   8 C8            -1.2282    -2.1390    -0.3201 C.1     
   9 N9            -1.2329    -3.2668    -0.4567 N.1     
  10 C10            1.2516     2.0758     0.0092 C.3     
  11 C11            1.5887     2.5043    -1.4204 C.3     
  12 C12            2.9126     3.2712    -1.4241 C.3     
  13 C13            4.0464     2.3334    -1.0048 C.3     
  14 C14            3.1877     3.8069    -2.8307 C.3     
  15 C15           -3.7215    -0.7207     0.0346 C.ar    
  16 C16           -4.4989    -0.7449     1.1957 C.ar    
  17 C17           -5.7057    -1.4073     1.2006 C.ar    
  18 C18           -6.1515    -2.0529     0.0510 C.ar    
  19 C19           -5.3793    -2.0310    -1.1068 C.ar    
  20 C20           -4.1748    -1.3646    -1.1199 C.ar    
  21 N21           -7.3720    -2.7222     0.0593 N.3     
  22 C22           -7.3368    -3.9009    -0.8360 C.3     
  23 C23           -8.2332    -4.9321    -0.1889 C.ar    
  24 C24           -8.4204    -4.5743     1.1353 C.ar    
  25 C25           -7.6522    -3.2982     1.3941 C.3     
  26 C26           -8.8337    -6.0725    -0.6873 C.ar    
  27 C27           -9.6211    -6.8557     0.1356 C.ar    
  28 C28           -9.8084    -6.4980     1.4580 C.ar    
  29 C29           -9.2077    -5.3577     1.9573 C.ar    
  30 H30           -3.2832     1.9512     0.3262 H       
  31 H31           -1.1491     3.0943     0.3134 H       
  32 H32            1.1617     2.9590     0.6417 H       
  33 H33            2.0446     1.4336     0.3925 H       
  34 H34            1.6786     1.6211    -2.0528 H       
  35 H35            0.7957     3.1465    -1.8036 H       
  36 H36            2.8521     4.1041    -0.7236 H       
  37 H37            4.1069     1.5006    -1.7054 H       
  38 H38            4.9896     2.8798    -1.0075 H       
  39 H39            3.8504     1.9518    -0.0028 H       
  40 H40            2.3799     4.4750    -3.1294 H       
  41 H41            4.1308     4.3532    -2.8334 H       
  42 H42            3.2482     2.9740    -3.5312 H       
  43 H43           -4.1531    -0.2448     2.0883 H       
  44 H44           -6.3069    -1.4264     2.0976 H       
  45 H45           -5.7278    -2.5331    -1.9972 H       
  46 H46           -3.5762    -1.3477    -2.0187 H       
  47 H47           -7.7182    -3.6362    -1.8221 H       
  48 H48           -6.3192    -4.2832    -0.9153 H       
  49 H49           -6.7191    -3.5190     1.9123 H       
  50 H50           -8.2564    -2.6078     1.9828 H       
  51 H51           -8.6882    -6.3517    -1.7203 H       
  52 H52          -10.0902    -7.7468    -0.2544 H       
  53 H53          -10.4242    -7.1096     2.1007 H       
  54 H54           -9.3542    -5.0786     2.9903 H       
@<TRIPOS>BOND
   1    1    2 am
   2    1   10 1
   3    1    6 1
   4    2    3 1
   5    2    7 2
   6    3    4 2
   7    3    8 1
   8    4    5 1
   9    4   15 1
  10    5    6 2
  11    5   30 1
  12    6   31 1
  13    8    9 3
  14   10   11 1
  15   10   32 1
  16   10   33 1
  17   11   12 1
  18   11   34 1
  19   11   35 1
  20   12   13 1
  21   12   14 1
  22   12   36 1
  23   13   37 1
  24   13   38 1
  25   13   39 1
  26   14   40 1
  27   14   41 1
  28   14   42 1
  29   15   16 ar
  30   15   20 ar
  31   16   17 ar
  32   16   43 1
  33   17   18 ar
  34   17   44 1
  35   18   19 ar
  36   18   21 1
  37   19   20 ar
  38   19   45 1
  39   20   46 1
  40   21   22 1
  41   21   25 1
  42   22   23 1
  43   22   47 1
  44   22   48 1
  45   23   24 ar
  46   23   26 ar
  47   24   25 1
  48   24   29 ar
  49   25   49 1
  50   25   50 1
  51   26   27 ar
  52   26   51 1
  53   27   28 ar
  54   27   52 1
  55   28   29 ar
  56   28   53 1
  57   29   54 1

#	End of record

