#	Name: ASD05740215
#	Creating user name:	WinNT
#	Creation time:	15. 06. 2019 21:03

#	Modifying user name:	WinNT
#	Modification time:	15. 06. 2019 21:03

#	Program:	/corina/corina34_cracker 3.40 0067  02.08.2006

@<TRIPOS>MOLECULE
ASD05740215
  64   68    0    0    0
SMALL
NO_CHARGES


@<TRIPOS>ATOM
   1 C1             1.0008    -0.7352     1.5062 C.3     
   2 N2             0.0192    -0.2528     2.4876 N.3     
   3 C3            -1.2653    -0.7163     2.1817 C.ar    
   4 C4            -2.3395    -0.3705     2.9911 C.ar    
   5 C5            -3.6067    -0.8280     2.6892 C.ar    
   6 C6            -3.8071    -1.6342     1.5765 C.ar    
   7 C7            -2.7330    -1.9804     0.7673 C.ar    
   8 C8            -1.4667    -1.5176     1.0654 C.ar    
   9 N9            -5.0927    -2.0986     1.2705 N.pl3   
  10 C10           -6.1930    -1.3037     1.5254 C.ar    
  11 N11           -5.9983    -0.0600     1.9503 N.ar    
  12 N12           -7.4027    -1.8085     1.3319 N.ar    
  13 C13           -8.4819    -1.0734     1.5666 C.ar    
  14 C14           -8.3136     0.2519     2.0248 C.ar    
  15 C15           -7.0157     0.7419     2.2087 C.ar    
  16 N16           -9.7464    -1.5675     1.3754 N.am    
  17 C17          -10.8296    -0.8081     1.6180 C.2     
  18 C18          -10.7183     0.5204     2.0758 C.2     
  19 C19           -9.4937     1.0702     2.2865 C.2     
  20 C20           -9.9202    -2.9421     0.8996 C.3     
  21 O21          -11.9379    -1.2815     1.4365 O.2     
  22 C22          -10.0092    -3.8748     2.0800 C.ar    
  23 C23          -10.1229    -5.2376     1.8772 C.ar    
  24 C24            0.4078    -0.6398     3.8510 C.3     
  25 C25            1.7817    -0.0479     4.1744 C.3     
  26 N26            2.7634    -0.5303     3.1930 N.3     
  27 C27            2.3747    -0.1433     1.8296 C.3     
  28 C28            4.1117    -0.0437     3.5142 C.3     
  29 C29          -10.2046    -6.0930     2.9598 C.ar    
  30 C30          -10.1720    -5.5858     4.2455 C.ar    
  31 C31          -10.0574    -4.2234     4.4483 C.ar    
  32 C32           -9.9714    -3.3682     3.3654 C.ar    
  33 S33          -10.1644    -5.8840     0.2386 S.o2    
  34 O34           -9.0719    -5.2527    -0.4150 O.2     
  35 O35          -10.1953    -7.2933     0.4184 O.2     
  36 C36          -11.7396    -5.2943    -0.4409 C.3     
  37 H37            1.0542    -1.8230     1.5498 H       
  38 H38            0.6976    -0.4254     0.5061 H       
  39 H39           -2.1835     0.2559     3.8569 H       
  40 H40           -4.4421    -0.5590     3.3187 H       
  41 H41           -2.8887    -2.6080    -0.0977 H       
  42 H42           -0.6313    -1.7868     0.4361 H       
  43 H43           -5.2102    -2.9786     0.8795 H       
  44 H44           -6.8499     1.7503     2.5582 H       
  45 H45          -11.6089     1.1028     2.2600 H       
  46 H46           -9.3960     2.0869     2.6374 H       
  47 H47          -10.8362    -3.0104     0.3128 H       
  48 H48           -9.0692    -3.2221     0.2787 H       
  49 H49           -0.3277    -0.2604     4.5604 H       
  50 H50            0.4544    -1.7265     3.9212 H       
  51 H51            1.7284     1.0400     4.1308 H       
  52 H52            2.0849    -0.3576     5.1745 H       
  53 H53            3.1102    -0.5226     1.1202 H       
  54 H54            2.3281     0.9435     1.7594 H       
  55 H55            4.4010    -0.4009     4.5025 H       
  56 H56            4.8185    -0.4154     2.7722 H       
  57 H57            4.1161     1.0463     3.5061 H       
  58 H58          -10.2941    -7.1576     2.8013 H       
  59 H59          -10.2365    -6.2541     5.0915 H       
  60 H60          -10.0323    -3.8272     5.4527 H       
  61 H61           -9.8818    -2.3036     3.5239 H       
  62 H62          -11.7107    -4.2089    -0.5358 H       
  63 H63          -11.9019    -5.7406    -1.4220 H       
  64 H64          -12.5527    -5.5792     0.2268 H       
@<TRIPOS>BOND
   1    1    2 1
   2    1   27 1
   3    1   37 1
   4    1   38 1
   5    2    3 1
   6    2   24 1
   7    3    4 ar
   8    3    8 ar
   9    4    5 ar
  10    4   39 1
  11    5    6 ar
  12    5   40 1
  13    6    7 ar
  14    6    9 1
  15    7    8 ar
  16    7   41 1
  17    8   42 1
  18    9   10 1
  19    9   43 1
  20   10   11 ar
  21   10   12 ar
  22   11   15 ar
  23   12   13 ar
  24   13   14 ar
  25   13   16 1
  26   14   15 ar
  27   14   19 1
  28   15   44 1
  29   16   17 am
  30   16   20 1
  31   17   18 1
  32   17   21 2
  33   18   19 2
  34   18   45 1
  35   19   46 1
  36   20   22 1
  37   20   47 1
  38   20   48 1
  39   22   23 ar
  40   22   32 ar
  41   23   29 ar
  42   23   33 1
  43   24   25 1
  44   24   49 1
  45   24   50 1
  46   25   26 1
  47   25   51 1
  48   25   52 1
  49   26   27 1
  50   26   28 1
  51   27   53 1
  52   27   54 1
  53   28   55 1
  54   28   56 1
  55   28   57 1
  56   29   30 ar
  57   29   58 1
  58   30   31 ar
  59   30   59 1
  60   31   32 ar
  61   31   60 1
  62   32   61 1
  63   33   34 2
  64   33   35 2
  65   33   36 1
  66   36   62 1
  67   36   63 1
  68   36   64 1

#	End of record

