#	Name: ASD03430030
#	Creating user name:	WinNT
#	Creation time:	15. 06. 2019 20:40

#	Modifying user name:	WinNT
#	Modification time:	15. 06. 2019 20:40

#	Program:	/corina/corina34_cracker 3.40 0067  02.08.2006

@<TRIPOS>MOLECULE
ASD03430030
  56   62    0    0    0
SMALL
NO_CHARGES


@<TRIPOS>ATOM
   1 C1            -0.0169     1.3928     0.0097 C.ar    
   2 C2             0.0021    -0.0041     0.0020 C.ar    
   3 C3             1.1908    -0.6691    -0.0092 C.ar    
   4 C4             2.4042     0.0261    -0.0025 C.ar    
   5 C5             2.3958     1.4150    -0.0031 C.ar    
   6 C6             1.1946     2.1061     0.0020 C.ar    
   7 O7             3.4619    -0.8331     0.0177 O.3     
   8 C8             1.5381    -2.1337    -0.0430 C.3     
   9 C9             3.0265    -2.1345    -0.4188 C.3     
  10 C10            0.4082    -3.8526     1.0004 C.ar    
  11 C11            1.2925    -2.8113     1.2719 C.ar    
  12 C12            0.7118    -2.8917    -1.0419 C.2     
  13 N13            0.0888    -3.8728    -0.3592 N.am    
  14 O14            0.6221    -2.6651    -2.2301 O.2     
  15 C15            1.7471    -2.5950     2.5535 C.ar    
  16 C16            1.3279    -3.4162     3.5856 C.ar    
  17 C17            0.4518    -4.4539     3.3272 C.ar    
  18 C18           -0.0073    -4.6744     2.0449 C.ar    
  19 C19           -0.8174    -4.8473    -0.9720 C.3     
  20 C20           -2.2265    -4.3140    -0.9369 C.ar    
  21 C21           -2.7019    -3.5544    -1.9909 C.ar    
  22 C22           -3.9911    -3.0633    -1.9648 C.ar    
  23 C23           -4.8155    -3.3343    -0.8726 C.ar    
  24 C24           -4.3303    -4.1010     0.1870 C.ar    
  25 C25           -3.0411    -4.5910     0.1464 C.ar    
  26 C26           -6.1990    -2.8103    -0.8380 C.2     
  27 C27           -7.1094    -2.9978     0.1626 C.2     
  28 C28           -8.2887    -2.3359    -0.2022 C.2     
  29 N29           -8.1029    -1.7713    -1.3727 N.2     
  30 N30           -6.7966    -2.0471    -1.7962 N.pl3   
  31 N31           -9.4663    -2.2854     0.5533 N.pl3   
  32 C32           -1.0868     2.3929     0.0312 C.2     
  33 N33           -0.5253     3.5630     0.0239 N.2     
  34 O34            0.8804     3.4182     0.0012 O.3     
  35 C35           -2.5676     2.1144     0.0565 C.3     
  36 H36           -0.9258    -0.5567     0.0053 H       
  37 H37            3.3290     1.9585    -0.0070 H       
  38 H38            3.1533    -2.2436    -1.4959 H       
  39 H39            3.5599    -2.9203     0.1160 H       
  40 H40            2.4311    -1.7835     2.7535 H       
  41 H41            1.6848    -3.2469     4.5908 H       
  42 H42            0.1254    -5.0951     4.1326 H       
  43 H43           -0.6921    -5.4867     1.8507 H       
  44 H44           -0.5198    -5.0199    -2.0063 H       
  45 H45           -0.7701    -5.7853    -0.4189 H       
  46 H46           -2.0625    -3.3449    -2.8357 H       
  47 H47           -4.3609    -2.4701    -2.7880 H       
  48 H48           -4.9638    -4.3142     1.0353 H       
  49 H49           -2.6643    -5.1850     0.9660 H       
  50 H50           -6.9489    -3.5571     1.0724 H       
  51 H51           -6.3913    -1.7524    -2.6267 H       
  52 H52           -9.5116    -2.7354     1.4114 H       
  53 H53          -10.2368    -1.8004     0.2186 H       
  54 H54           -2.9066     2.0445     1.0901 H       
  55 H55           -3.0981     2.9232    -0.4460 H       
  56 H56           -2.7693     1.1739    -0.4563 H       
@<TRIPOS>BOND
   1    1    2 ar
   2    1    6 ar
   3    1   32 1
   4    2    3 ar
   5    2   36 1
   6    3    4 ar
   7    3    8 1
   8    4    5 ar
   9    4    7 1
  10    5    6 ar
  11    5   37 1
  12    6   34 1
  13    7    9 1
  14    8    9 1
  15    8   11 1
  16    8   12 1
  17    9   38 1
  18    9   39 1
  19   10   11 ar
  20   10   13 1
  21   10   18 ar
  22   11   15 ar
  23   12   13 am
  24   12   14 2
  25   13   19 1
  26   15   16 ar
  27   15   40 1
  28   16   17 ar
  29   16   41 1
  30   17   18 ar
  31   17   42 1
  32   18   43 1
  33   19   20 1
  34   19   44 1
  35   19   45 1
  36   20   21 ar
  37   20   25 ar
  38   21   22 ar
  39   21   46 1
  40   22   23 ar
  41   22   47 1
  42   23   24 ar
  43   23   26 1
  44   24   25 ar
  45   24   48 1
  46   25   49 1
  47   26   27 2
  48   26   30 1
  49   27   28 1
  50   27   50 1
  51   28   29 2
  52   28   31 1
  53   29   30 1
  54   30   51 1
  55   31   52 1
  56   31   53 1
  57   32   33 2
  58   32   35 1
  59   33   34 1
  60   35   54 1
  61   35   55 1
  62   35   56 1

#	End of record

