#	Name: ASD04660036
#	Creating user name:	WinNT
#	Creation time:	15. 06. 2019 20:52

#	Modifying user name:	WinNT
#	Modification time:	15. 06. 2019 20:52

#	Program:	/corina/corina34_cracker 3.40 0067  02.08.2006

@<TRIPOS>MOLECULE
ASD04660036
  35   36    0    0    0
SMALL
NO_CHARGES


@<TRIPOS>ATOM
   1 C1            -0.0907     1.6745     0.9163 C.ar    
   2 C2             0.0029     0.3329     0.5574 C.ar    
   3 C3             1.2147    -0.2929     0.4825 C.ar    
   4 C4             2.3915     0.4279     0.7727 C.ar    
   5 C5             2.2899     1.7930     1.1374 C.ar    
   6 C6             1.0255     2.4023     1.2035 C.ar    
   7 Cl7            0.8856     4.0744     1.6485 Cl      
   8 O8             1.2859    -1.6033     0.1307 O.3     
   9 N9             3.5916    -0.1562     0.7088 N.ar    
  10 C10            4.6885     0.5092     0.9779 C.ar    
  11 C11            4.6594     1.8536     1.3427 C.ar    
  12 C12            3.4653     2.5112     1.4266 C.ar    
  13 C13           -2.6823    -3.3796     2.1062 C.3     
  14 C14           -2.5532    -2.3446     0.9867 C.3     
  15 N15           -1.5806    -1.3164     1.3802 N.3     
  16 C16           -1.2522    -0.4413     0.2470 C.3     
  17 C17           -2.0732    -0.5356     2.5229 C.3     
  18 C18           -3.4488     0.0449     2.1888 C.3     
  19 H19           -1.0609     2.1466     0.9636 H       
  20 H20            1.3737    -1.7509    -0.8209 H       
  21 H21            5.6398     0.0018     0.9156 H       
  22 H22            5.5802     2.3751     1.5588 H       
  23 H23            3.4241     3.5532     1.7075 H       
  24 H24           -3.4039    -4.1425     1.8142 H       
  25 H25           -1.7130    -3.8453     2.2839 H       
  26 H26           -3.0219    -2.8881     3.0179 H       
  27 H27           -2.2136    -2.8361     0.0750 H       
  28 H28           -3.5225    -1.8789     0.8090 H       
  29 H29           -2.0742     0.2534     0.0743 H       
  30 H30           -1.0944    -1.0465    -0.6457 H       
  31 H31           -2.1540    -1.1820     3.3968 H       
  32 H32           -1.3778     0.2765     2.7348 H       
  33 H33           -4.1600    -0.7679     2.0413 H       
  34 H34           -3.7854     0.6776     3.0101 H       
  35 H35           -3.3811     0.6384     1.2771 H       
@<TRIPOS>BOND
   1    1    2 ar
   2    1    6 ar
   3    1   19 1
   4    2    3 ar
   5    2   16 1
   6    3    4 ar
   7    3    8 1
   8    4    5 ar
   9    4    9 ar
  10    5    6 ar
  11    5   12 ar
  12    6    7 1
  13    8   20 1
  14    9   10 ar
  15   10   11 ar
  16   10   21 1
  17   11   12 ar
  18   11   22 1
  19   12   23 1
  20   13   14 1
  21   13   24 1
  22   13   25 1
  23   13   26 1
  24   14   15 1
  25   14   27 1
  26   14   28 1
  27   15   16 1
  28   15   17 1
  29   16   29 1
  30   16   30 1
  31   17   18 1
  32   17   31 1
  33   17   32 1
  34   18   33 1
  35   18   34 1
  36   18   35 1

#	End of record

