#	Name: ASD01810989
#	Creating user name:	WinNT
#	Creation time:	15. 06. 2019 19:25

#	Modifying user name:	WinNT
#	Modification time:	15. 06. 2019 19:25

#	Program:	/corina/corina34_cracker 3.40 0067  02.08.2006

@<TRIPOS>MOLECULE
ASD01810989
  58   60    0    0    0
SMALL
NO_CHARGES


@<TRIPOS>ATOM
   1 C1             0.2408     0.8319     1.7961 C.2     
   2 C2             0.1324    -0.3239     0.8803 C.ar    
   3 C3             1.1566    -0.5939    -0.0306 C.ar    
   4 C4             1.0566    -1.6723    -0.8866 C.ar    
   5 C5            -0.0547    -2.4913    -0.8487 C.ar    
   6 C6            -1.0859    -2.2327     0.0571 C.ar    
   7 C7            -0.9887    -1.1492     0.9278 C.ar    
   8 O8             1.2636     1.4880     1.8282 O.2     
   9 N9            -0.7964     1.1614     2.5912 N.am    
  10 N10           -0.6962     2.2292     3.4372 N.3     
  11 C11           -0.1552    -3.6663    -1.7869 C.3     
  12 C12           -1.0239    -3.2871    -2.9879 C.3     
  13 C13            2.3731     0.2944    -0.0791 C.3     
  14 C14            3.3600    -0.1325     1.0092 C.3     
  15 C15           -2.2753    -3.1102     0.0960 C.2     
  16 O16           -2.1391    -4.3152     0.1795 O.2     
  17 N17           -3.5105    -2.5740     0.0389 N.am    
  18 C18           -4.7016    -3.4193     0.1990 C.3     
  19 C19           -5.6308    -3.1936    -0.9979 C.3     
  20 C20           -5.9335    -1.6991    -1.1289 C.3     
  21 C21           -4.6320    -0.9331    -1.3766 C.3     
  22 C22           -3.6914    -1.1323    -0.1785 C.3     
  23 C23           -6.8746    -1.4770    -2.2847 C.ar    
  24 C24           -8.1098    -0.8936    -2.0647 C.ar    
  25 C25           -8.9762    -0.6873    -3.1181 C.ar    
  26 C26           -8.6039    -1.0683    -4.4089 C.ar    
  27 C27           -7.3557    -1.6561    -4.6238 C.ar    
  28 C28           -6.4972    -1.8521    -3.5619 C.ar    
  29 C29           -9.4984    -0.8576    -5.5071 C.1     
  30 N30          -10.2080    -0.6904    -6.3783 N.1     
  31 H31            1.8509    -1.8763    -1.5894 H       
  32 H32           -1.7813    -0.9475     1.6332 H       
  33 H33           -1.6140     0.6403     2.5626 H       
  34 H34           -0.4593     3.0698     2.9320 H       
  35 H35           -1.5466     2.3526     3.9660 H       
  36 H36            0.8413    -3.9420    -2.1320 H       
  37 H37           -0.6055    -4.5106    -1.2649 H       
  38 H38           -0.5737    -2.4427    -3.5099 H       
  39 H39           -1.0966    -4.1369    -3.6666 H       
  40 H40           -2.0205    -3.0114    -2.6429 H       
  41 H41            2.8487     0.2060    -1.0559 H       
  42 H42            2.0741     1.3293     0.0871 H       
  43 H43            4.2399     0.5099     0.9741 H       
  44 H44            2.8844    -0.0442     1.9860 H       
  45 H45            3.6590    -1.1675     0.8430 H       
  46 H46           -4.4036    -4.4670     0.2378 H       
  47 H47           -5.2195    -3.1502     1.1195 H       
  48 H48           -5.1451    -3.5475    -1.9073 H       
  49 H49           -6.5607    -3.7411    -0.8448 H       
  50 H50           -6.3966    -1.3405    -0.2096 H       
  51 H51           -4.1558    -1.3083    -2.2824 H       
  52 H52           -4.8511     0.1283    -1.4931 H       
  53 H53           -4.1286    -0.6805     0.7120 H       
  54 H54           -2.7266    -0.6706    -0.3888 H       
  55 H55           -8.3964    -0.5994    -1.0658 H       
  56 H56           -9.9403    -0.2324    -2.9449 H       
  57 H57           -7.0616    -1.9531    -5.6196 H       
  58 H58           -5.5299    -2.3029    -3.7273 H       
@<TRIPOS>BOND
   1    1    2 1
   2    1    8 2
   3    1    9 am
   4    2    3 ar
   5    2    7 ar
   6    3    4 ar
   7    3   13 1
   8    4    5 ar
   9    4   31 1
  10    5    6 ar
  11    5   11 1
  12    6    7 ar
  13    6   15 1
  14    7   32 1
  15    9   10 1
  16    9   33 1
  17   10   34 1
  18   10   35 1
  19   11   12 1
  20   11   36 1
  21   11   37 1
  22   12   38 1
  23   12   39 1
  24   12   40 1
  25   13   14 1
  26   13   41 1
  27   13   42 1
  28   14   43 1
  29   14   44 1
  30   14   45 1
  31   15   16 2
  32   15   17 am
  33   17   18 1
  34   17   22 1
  35   18   19 1
  36   18   46 1
  37   18   47 1
  38   19   20 1
  39   19   48 1
  40   19   49 1
  41   20   21 1
  42   20   23 1
  43   20   50 1
  44   21   22 1
  45   21   51 1
  46   21   52 1
  47   22   53 1
  48   22   54 1
  49   23   24 ar
  50   23   28 ar
  51   24   25 ar
  52   24   55 1
  53   25   26 ar
  54   25   56 1
  55   26   27 ar
  56   26   29 1
  57   27   28 ar
  58   27   57 1
  59   28   58 1
  60   29   30 3

#	End of record

