#	Name: ASD05143049
#	Creating user name:	WinNT
#	Creation time:	15. 06. 2019 20:57

#	Modifying user name:	WinNT
#	Modification time:	15. 06. 2019 20:57

#	Program:	/corina/corina34_cracker 3.40 0067  02.08.2006

@<TRIPOS>MOLECULE
ASD05143049
 145  149    0    0    0
SMALL
NO_CHARGES


@<TRIPOS>ATOM
   1 C1             3.8265     1.4077    -1.1700 C.2     
   2 C2             4.6508     0.1496    -1.2627 C.3     
   3 N3             4.3036     2.4784    -0.5048 N.am    
   4 O4             2.7359     1.4585    -1.6982 O.2     
   5 C5             3.5022     3.7015    -0.4146 C.3     
   6 C6             3.2246     4.2342    -1.8218 C.3     
   7 C7             2.1968     3.3971     0.2739 C.2     
   8 C8             4.5498     4.4596    -2.5525 C.3     
   9 C9             4.2708     4.8661    -4.0009 C.3     
  10 N10            5.5359     4.9625    -4.7333 N.pl3   
  11 C11            5.5358     5.3155    -6.0621 C.2     
  12 N12            4.3484     5.5780    -6.7035 N.pl3   
  13 N13            6.6613     5.4013    -6.7137 N.2     
  14 O14            1.7450     2.2719     0.2473 O.2     
  15 N15            1.5312     4.3754     0.9194 N.am    
  16 C16            0.3232     4.0576     1.6848 C.3     
  17 C17            0.5981     4.2483     3.1795 C.3     
  18 C18            0.0947     3.0190     3.9400 C.3     
  19 C19            0.0876     3.3075     5.4185 C.2     
  20 O20            0.8290     4.1446     5.8881 O.2     
  21 N21           -0.7704     2.6085     6.2209 N.am    
  22 C22           -0.7105     2.9479     7.6604 C.3     
  23 C23           -2.1036     2.7696     8.2676 C.3     
  24 C24           -2.8343     4.1140     8.2595 C.3     
  25 C25           -4.2291     3.9407     8.8633 C.3     
  26 N26           -5.0549     5.1061     8.4897 N.am    
  27 C27           -4.1233     3.8565    10.3643 C.2     
  28 N28           -3.7639     2.6973    10.9505 N.am    
  29 O29           -4.3615     4.8318    11.0446 O.2     
  30 C30           -6.1475     4.8463     7.7211 C.2     
  31 O31           -6.4055     3.7092     7.3875 O.2     
  32 C32           -7.0325     5.9850     7.2889 C.3     
  33 N33           -7.3065     5.8624     5.8383 N.am    
  34 C34           -8.3502     5.9316     8.0647 C.3     
  35 C35           -6.7625     6.8355     5.0454 C.2     
  36 O36           -6.0851     7.7166     5.5307 O.2     
  37 C37           -7.0162     6.7970     3.5607 C.3     
  38 N38           -5.8890     7.4358     2.8457 N.am    
  39 C39           -7.1498     5.3427     3.1045 C.3     
  40 C40           -5.1257     6.6293     2.0667 C.2     
  41 O41           -5.3058     5.4306     2.1069 O.2     
  42 C42           -4.0620     7.1779     1.1535 C.3     
  43 C43           -9.1842     7.1391     7.7219 C.2     
  44 C44          -10.0883     7.2773     6.5776 C.ar    
  45 C45          -10.6414     8.5672     6.6729 C.ar    
  46 N46          -10.1050     9.1573     7.7953 N.pl3   
  47 C47           -9.2439     8.2899     8.4104 C.2     
  48 C48          -10.4546     6.4383     5.5234 C.ar    
  49 C49          -11.3499     6.8753     4.5884 C.ar    
  50 C50          -11.8983     8.1476     4.6777 C.ar    
  51 C51          -11.5515     8.9913     5.7099 C.ar    
  52 N52           -4.1414     6.4423    -0.1332 N.am    
  53 C53           -2.6828     6.9722     1.7831 C.3     
  54 C54           -2.1051     8.3078     2.1747 C.ar    
  55 C55           -1.8960     8.6059     3.5078 C.ar    
  56 C56           -1.3651     9.8322     3.8673 C.ar    
  57 C57           -1.0440    10.7589     2.8918 C.ar    
  58 C58           -1.2536    10.4595     1.5586 C.ar    
  59 C59           -1.7790     9.2325     1.1999 C.ar    
  60 C60           -0.7961     4.9837     1.2707 C.2     
  61 O61           -1.7910     5.0878     1.9564 O.2     
  62 C62           -7.5042     5.3055     1.6166 C.3     
  63 C63           -7.6268     3.8510     1.1578 C.3     
  64 N64           -7.9661     3.8153    -0.2669 N.pl3   
  65 C65           -8.1291     2.6083    -0.9048 C.2     
  66 N66           -7.9735     1.4348    -0.2056 N.pl3   
  67 N67           -8.4310     2.5766    -2.1723 N.2     
  68 N68           -0.6767     5.6944     0.1293 N.am    
  69 C69           -1.6369     6.6581    -0.4079 C.3     
  70 C70            0.0690     6.2361    -2.1100 C.3     
  71 C71           -1.0675     7.2023    -1.7305 C.3     
  72 C72           -2.9636     6.0157    -0.6536 C.2     
  73 O73           -2.9892     5.0393    -1.3726 O.2     
  74 Cl74          -1.1027    10.2077     5.5417 Cl      
  75 C75            0.4777     5.6069    -0.7687 C.3     
  76 O76            1.1651     6.9510    -2.6840 O.3     
  77 H77            5.5941     0.2936    -0.7359 H       
  78 H78            4.1040    -0.6773    -0.8094 H       
  79 H79            4.8504    -0.0776    -2.3099 H       
  80 H80            5.1775     2.4392    -0.0858 H       
  81 H81            4.0481     4.4522     0.1569 H       
  82 H82            2.6246     3.5098    -2.3727 H       
  83 H83            2.6826     5.1774    -1.7529 H       
  84 H84            5.1093     5.2514    -2.0543 H       
  85 H85            5.1331     3.5390    -2.5394 H       
  86 H86            3.6343     4.1172    -4.4722 H       
  87 H87            3.7674     5.8327    -4.0165 H       
  88 H88            6.3737     4.7772    -4.2808 H       
  89 H89            3.5107     5.5142    -6.2185 H       
  90 H90            4.3483     5.8271    -7.6410 H       
  91 H91            6.6612     5.6503    -7.6512 H       
  92 H92            1.8521     5.2898     0.8771 H       
  93 H93            0.0328     3.0241     1.4960 H       
  94 H94            1.6698     4.3636     3.3414 H       
  95 H95            0.0764     5.1365     3.5359 H       
  96 H96           -0.9167     2.7786     3.6123 H       
  97 H97            0.7519     2.1732     3.7384 H       
  98 H98           -1.3767     1.9370     5.8711 H       
  99 H99           -0.0055     2.2855     8.1628 H       
 100 H100          -0.3901     3.9830     7.7787 H       
 101 H101          -2.6671     2.0456     7.6792 H       
 102 H102          -2.0105     2.4122     9.2932 H       
 103 H103          -2.2707     4.8374     8.8488 H       
 104 H104          -2.9244     4.4723     7.2341 H       
 105 H105          -4.6850     3.0300     8.4750 H       
 106 H106          -4.8315     6.0056     8.7760 H       
 107 H107          -3.5734     1.9173    10.4063 H       
 108 H108          -3.6958     2.6431    11.9166 H       
 109 H109          -6.5303     6.9320     7.4862 H       
 110 H110          -7.8384     5.1379     5.4736 H       
 111 H111          -8.8940     5.0261     7.7953 H       
 112 H112          -8.1420     5.9256     9.1346 H       
 113 H113          -7.9385     7.3330     3.3363 H       
 114 H114          -5.7053     8.3846     2.9296 H       
 115 H115          -6.2054     4.8230     3.2662 H       
 116 H116          -7.9368     4.8529     3.6778 H       
 117 H117          -4.2352     8.2404     0.9822 H       
 118 H118         -10.3100    10.0531     8.1059 H       
 119 H119          -8.6885     8.5025     9.3120 H       
 120 H120         -10.0315     5.4476     5.4471 H       
 121 H121         -11.6329     6.2260     3.7731 H       
 122 H122         -12.6045     8.4789     3.9308 H       
 123 H123         -11.9839     9.9791     5.7708 H       
 124 H124          -4.9878     6.2758    -0.5768 H       
 125 H125          -2.7777     6.3436     2.6686 H       
 126 H126          -2.0232     6.4881     1.0629 H       
 127 H127          -2.1473     7.8821     4.2690 H       
 128 H128          -0.6299    11.7163     3.1717 H       
 129 H129          -1.0029    11.1830     0.7969 H       
 130 H130          -1.9423     8.9989     0.1582 H       
 131 H131          -8.4526     5.8182     1.4560 H       
 132 H132          -6.7210     5.8023     1.0440 H       
 133 H133          -6.6784     3.3382     1.3183 H       
 134 H134          -8.4100     3.3542     1.7304 H       
 135 H135          -8.0759     4.6433    -0.7602 H       
 136 H136          -7.7488     1.4585     0.7378 H       
 137 H137          -8.0884     0.5832    -0.6556 H       
 138 H138          -8.5459     1.7250    -2.6223 H       
 139 H139          -1.7403     7.4902     0.2917 H       
 140 H140          -0.2916     5.4722    -2.7988 H       
 141 H141          -1.8376     7.2012    -2.5020 H       
 142 H142          -0.6753     8.2091    -1.5871 H       
 143 H143           1.3192     6.1544    -0.3442 H       
 144 H144           0.7521     4.5626    -0.9182 H       
 145 H145           1.9357     6.3999    -2.8780 H       
@<TRIPOS>BOND
   1    1    2 1
   2    1    3 am
   3    1    4 2
   4    2   77 1
   5    2   78 1
   6    2   79 1
   7    3    5 1
   8    3   80 1
   9    5    6 1
  10    5    7 1
  11    5   81 1
  12    6    8 1
  13    6   82 1
  14    6   83 1
  15    7   14 2
  16    7   15 am
  17    8    9 1
  18    8   84 1
  19    8   85 1
  20    9   10 1
  21    9   86 1
  22    9   87 1
  23   10   11 1
  24   10   88 1
  25   11   12 1
  26   11   13 2
  27   12   89 1
  28   12   90 1
  29   13   91 1
  30   15   16 1
  31   15   92 1
  32   16   17 1
  33   16   60 1
  34   16   93 1
  35   17   18 1
  36   17   94 1
  37   17   95 1
  38   18   19 1
  39   18   96 1
  40   18   97 1
  41   19   20 2
  42   19   21 am
  43   21   22 1
  44   21   98 1
  45   22   23 1
  46   22   99 1
  47   22  100 1
  48   23   24 1
  49   23  101 1
  50   23  102 1
  51   24   25 1
  52   24  103 1
  53   24  104 1
  54   25   26 1
  55   25   27 1
  56   25  105 1
  57   26   30 am
  58   26  106 1
  59   27   28 am
  60   27   29 2
  61   28  107 1
  62   28  108 1
  63   30   31 2
  64   30   32 1
  65   32   33 1
  66   32   34 1
  67   32  109 1
  68   33   35 am
  69   33  110 1
  70   34   43 1
  71   34  111 1
  72   34  112 1
  73   35   36 2
  74   35   37 1
  75   37   38 1
  76   37   39 1
  77   37  113 1
  78   38   40 am
  79   38  114 1
  80   39   62 1
  81   39  115 1
  82   39  116 1
  83   40   41 2
  84   40   42 1
  85   42   52 1
  86   42   53 1
  87   42  117 1
  88   43   44 1
  89   43   47 2
  90   44   45 ar
  91   44   48 ar
  92   45   46 1
  93   45   51 ar
  94   46   47 1
  95   46  118 1
  96   47  119 1
  97   48   49 ar
  98   48  120 1
  99   49   50 ar
 100   49  121 1
 101   50   51 ar
 102   50  122 1
 103   51  123 1
 104   52   72 am
 105   52  124 1
 106   53   54 1
 107   53  125 1
 108   53  126 1
 109   54   55 ar
 110   54   59 ar
 111   55   56 ar
 112   55  127 1
 113   56   57 ar
 114   56   74 1
 115   57   58 ar
 116   57  128 1
 117   58   59 ar
 118   58  129 1
 119   59  130 1
 120   60   61 2
 121   60   68 am
 122   62   63 1
 123   62  131 1
 124   62  132 1
 125   63   64 1
 126   63  133 1
 127   63  134 1
 128   64   65 1
 129   64  135 1
 130   65   66 1
 131   65   67 2
 132   66  136 1
 133   66  137 1
 134   67  138 1
 135   68   69 1
 136   68   75 1
 137   69   72 1
 138   69   71 1
 139   69  139 1
 140   70   71 1
 141   70   76 1
 142   70   75 1
 143   70  140 1
 144   71  141 1
 145   71  142 1
 146   72   73 2
 147   75  143 1
 148   75  144 1
 149   76  145 1

#	End of record

