#	Name: ASD02500229
#	Creating user name:	WinNT
#	Creation time:	15. 06. 2019 20:22

#	Modifying user name:	WinNT
#	Modification time:	15. 06. 2019 20:22

#	Program:	/corina/corina34_cracker 3.40 0067  02.08.2006

@<TRIPOS>MOLECULE
ASD02500229
  67   71    0    0    0
SMALL
NO_CHARGES


@<TRIPOS>ATOM
   1 N1             1.1244     1.7157     1.2953 N.am    
   2 C2             1.0424     0.2484     1.3124 C.3     
   3 C3             1.2478    -0.2706    -0.1161 C.3     
   4 N4             2.4473     0.3653    -0.6789 N.am    
   5 C5             2.5292     1.8325    -0.6960 C.3     
   6 C6             2.3239     2.3515     0.7325 C.3     
   7 C7             0.1151     2.4648     1.7818 C.2     
   8 O8            -0.8739     1.9278     2.2400 O.2     
   9 O9             0.2028     3.8081     1.7602 O.3     
  10 C10            3.4543    -0.3838    -1.1701 C.2     
  11 C11            3.4007    -1.8540    -1.0618 C.ar    
  12 C12            2.2033    -2.5318    -1.3120 C.ar    
  13 C13            2.1569    -3.9047    -1.2099 C.ar    
  14 C14            3.3024    -4.6172    -0.8575 C.ar    
  15 C15            4.4941    -3.9444    -0.6084 C.ar    
  16 C16            4.5477    -2.5726    -0.7145 C.ar    
  17 O17            4.4070     0.1523    -1.7025 O.2     
  18 S18            4.1965    -6.7859     0.3600 S.o2    
  19 O19            4.0698    -6.0581     1.5738 O.2     
  20 O20            3.8890    -8.1686     0.2471 O.2     
  21 N21            3.2532    -6.0045    -0.7544 N.am    
  22 N22            5.4515    -7.8337    -2.1602 N.ar    
  23 C23            5.8444    -8.3545    -3.2971 C.ar    
  24 C24            7.1594    -8.2358    -3.7424 C.ar    
  25 C25            8.0765    -7.5620    -2.9874 C.ar    
  26 C26            7.6508    -7.0035    -1.7672 C.ar    
  27 C27            8.5365    -6.2976    -0.9377 C.ar    
  28 C28            8.0861    -5.7726     0.2353 C.ar    
  29 C29            6.7569    -5.9259     0.6234 C.ar    
  30 C30            5.8716    -6.6050    -0.1560 C.ar    
  31 C31            6.2986    -7.1619    -1.3739 C.ar    
  32 F32            1.0009    -4.5610    -1.4508 F       
  33 C33           -0.9215     4.5509     2.3009 C.3     
  34 C34           -0.4248     5.8755     2.8837 C.3     
  35 C35           -1.6096     6.6582     3.4535 C.3     
  36 C36           -2.6194     6.9382     2.3386 C.3     
  37 C37           -3.1161     5.6136     1.7559 C.3     
  38 C38           -1.9313     4.8309     1.1861 C.3     
  39 H39            1.8190    -0.1538     1.9629 H       
  40 H40            0.0618    -0.0590     1.6759 H       
  41 H41            1.3820    -1.3521    -0.0967 H       
  42 H42            0.3799    -0.0181    -0.7254 H       
  43 H43            3.5098     2.1399    -1.0595 H       
  44 H44            1.7526     2.2347    -1.3465 H       
  45 H45            2.1896     3.4331     0.7130 H       
  46 H46            3.1918     2.0991     1.3418 H       
  47 H47            1.3161    -1.9795    -1.5846 H       
  48 H48            5.3796    -4.4991    -0.3353 H       
  49 H49            5.4748    -2.0519    -0.5251 H       
  50 H50            2.6664    -6.5135    -1.3353 H       
  51 H51            5.1301    -8.8902    -3.9046 H       
  52 H52            7.4532    -8.6766    -4.6835 H       
  53 H53            9.1000    -7.4606    -3.3171 H       
  54 H54            9.5692    -6.1720    -1.2280 H       
  55 H55            8.7682    -5.2297     0.8728 H       
  56 H56            6.4242    -5.5008     1.5588 H       
  57 H57           -1.4001     3.9653     3.0859 H       
  58 H58            0.2945     5.6760     3.6779 H       
  59 H59            0.0537     6.4611     2.0987 H       
  60 H60           -2.0881     6.0726     4.2384 H       
  61 H61           -1.2557     7.6019     3.8686 H       
  62 H62           -3.4634     7.4958     2.7445 H       
  63 H63           -2.1408     7.5238     1.5536 H       
  64 H64           -3.5946     5.0280     2.5409 H       
  65 H65           -3.8354     5.8131     0.9616 H       
  66 H66           -1.4528     5.4165     0.4011 H       
  67 H67           -2.2852     3.8873     0.7709 H       
@<TRIPOS>BOND
   1    1    2 1
   2    1    6 1
   3    1    7 am
   4    2    3 1
   5    2   39 1
   6    2   40 1
   7    3    4 1
   8    3   41 1
   9    3   42 1
  10    4    5 1
  11    4   10 am
  12    5    6 1
  13    5   43 1
  14    5   44 1
  15    6   45 1
  16    6   46 1
  17    7    8 2
  18    7    9 1
  19    9   33 1
  20   10   11 1
  21   10   17 2
  22   11   12 ar
  23   11   16 ar
  24   12   13 ar
  25   12   47 1
  26   13   14 ar
  27   13   32 1
  28   14   15 ar
  29   14   21 1
  30   15   16 ar
  31   15   48 1
  32   16   49 1
  33   18   19 2
  34   18   20 2
  35   18   21 am
  36   18   30 1
  37   21   50 1
  38   22   23 ar
  39   22   31 ar
  40   23   24 ar
  41   23   51 1
  42   24   25 ar
  43   24   52 1
  44   25   26 ar
  45   25   53 1
  46   26   27 ar
  47   26   31 ar
  48   27   28 ar
  49   27   54 1
  50   28   29 ar
  51   28   55 1
  52   29   30 ar
  53   29   56 1
  54   30   31 ar
  55   33   34 1
  56   33   38 1
  57   33   57 1
  58   34   35 1
  59   34   58 1
  60   34   59 1
  61   35   36 1
  62   35   60 1
  63   35   61 1
  64   36   37 1
  65   36   62 1
  66   36   63 1
  67   37   38 1
  68   37   64 1
  69   37   65 1
  70   38   66 1
  71   38   67 1

#	End of record

