#	Name: ASD01040032
#	Creating user name:	WinNT
#	Creation time:	15. 06. 2019 18:58

#	Modifying user name:	WinNT
#	Modification time:	15. 06. 2019 18:58

#	Program:	/corina/corina34_cracker 3.40 0067  02.08.2006

@<TRIPOS>MOLECULE
ASD01040032
  44   46    0    0    0
SMALL
NO_CHARGES


@<TRIPOS>ATOM
   1 O1            -0.0163     1.3545     0.0095 O.3     
   2 C2             0.0021    -0.0041     0.0020 C.ar    
   3 C3             0.0058    -0.6902    -1.2051 C.ar    
   4 C4             0.0245    -2.0689    -1.2160 C.ar    
   5 C5             0.0401    -2.7740    -0.0132 C.ar    
   6 C6             0.0607    -4.2565    -0.0214 C.2     
   7 C7            -1.0952    -5.0110    -0.5625 C.ar    
   8 C8            -2.3349    -4.9394     0.0717 C.ar    
   9 C9            -3.4080    -5.6423    -0.4339 C.ar    
  10 C10           -3.2550    -6.4211    -1.5731 C.ar    
  11 O11           -4.3142    -7.1126    -2.0689 O.3     
  12 C12           -2.0218    -6.4945    -2.2070 C.ar    
  13 C13           -0.9464    -5.7891    -1.7098 C.ar    
  14 C14            1.1231    -4.9138     0.4598 C.2     
  15 C15            2.3101    -4.1635     1.0221 C.3     
  16 C16            3.5827    -4.6930     0.3527 C.3     
  17 C17            3.6555    -6.2107     0.5284 C.3     
  18 C18            2.4809    -6.8733    -0.1933 C.3     
  19 C19            2.6099    -8.3942    -0.0884 C.3     
  20 C20            1.1645    -6.4259     0.4608 C.3     
  21 C21            0.0368    -2.0820     1.1973 C.ar    
  22 C22            0.0230    -0.7032     1.2014 C.ar    
  23 H23            0.8616     1.7598     0.0033 H       
  24 H24           -0.0063    -0.1435    -2.1364 H       
  25 H25            0.0266    -2.6021    -2.1553 H       
  26 H26           -2.4544    -4.3343     0.9583 H       
  27 H27           -4.3685    -5.5872     0.0568 H       
  28 H28           -4.8378    -6.6197    -2.7154 H       
  29 H29           -1.9059    -7.1013    -3.0929 H       
  30 H30            0.0126    -5.8466    -2.2033 H       
  31 H31            2.2025    -3.0990     0.8137 H       
  32 H32            2.3685    -4.3246     2.0986 H       
  33 H33            3.5623    -4.4506    -0.7098 H       
  34 H34            4.4554    -4.2312     0.8145 H       
  35 H35            4.5922    -6.5793     0.1102 H       
  36 H36            3.6129    -6.4550     1.5898 H       
  37 H37            2.4868    -6.5795    -1.2430 H       
  38 H38            2.6036    -8.6878     0.9613 H       
  39 H39            1.7728    -8.8662    -0.6028 H       
  40 H40            3.5453    -8.7122    -0.5490 H       
  41 H41            1.1187    -6.7927     1.4863 H       
  42 H42            0.3205    -6.8157    -0.1083 H       
  43 H43            0.0489    -2.6253     2.1306 H       
  44 H44            0.0242    -0.1666     2.1387 H       
@<TRIPOS>BOND
   1    1    2 1
   2    1   23 1
   3    2   22 ar
   4    2    3 ar
   5    3    4 ar
   6    3   24 1
   7    4    5 ar
   8    4   25 1
   9    5   21 ar
  10    5    6 1
  11    6    7 1
  12    6   14 2
  13    7    8 ar
  14    7   13 ar
  15    8    9 ar
  16    8   26 1
  17    9   27 1
  18    9   10 ar
  19   10   11 1
  20   10   12 ar
  21   11   28 1
  22   12   29 1
  23   12   13 ar
  24   13   30 1
  25   14   20 1
  26   14   15 1
  27   15   16 1
  28   15   31 1
  29   15   32 1
  30   16   17 1
  31   16   33 1
  32   16   34 1
  33   17   18 1
  34   17   35 1
  35   17   36 1
  36   18   19 1
  37   18   37 1
  38   18   20 1
  39   19   38 1
  40   19   39 1
  41   19   40 1
  42   20   41 1
  43   20   42 1
  44   21   43 1
  45   21   22 ar
  46   22   44 1

#	End of record

