#	Name: ASD01230045
#	Creating user name:	WinNT
#	Creation time:	15. 06. 2019 19:11

#	Modifying user name:	WinNT
#	Modification time:	15. 06. 2019 19:11

#	Program:	/corina/corina34_cracker 3.40 0067  02.08.2006

@<TRIPOS>MOLECULE
ASD01230045
  27   29    0    0    0
SMALL
NO_CHARGES


@<TRIPOS>ATOM
   1 C1            -0.0168     1.3890     0.0097 C.ar    
   2 C2             0.0021    -0.0041     0.0020 C.ar    
   3 S3             1.5052     2.2915    -0.0000 S.o2    
   4 N4             2.6935     1.1132     0.0715 N.am    
   5 C5             2.3272    -0.1330    -0.6242 C.3     
   6 N6             1.1762    -0.7096     0.0965 N.3     
   7 O7             1.6111     2.9051    -1.2773 O.2     
   8 O8             1.5647     3.0102     1.2244 O.2     
   9 C9            -1.2111    -0.6906    -0.0422 C.ar    
  10 C10           -2.4047    -0.0009    -0.0529 C.ar    
  11 C11           -2.4111     1.3813    -0.0195 C.ar    
  12 C12           -1.2138     2.0728     0.0126 C.ar    
  13 C13            3.4206    -1.2051    -0.5033 C.3     
  14 C14            2.6425    -2.5320    -0.3254 C.3     
  15 C15            1.1470    -2.1222    -0.3120 C.3     
  16 H16            3.5408     1.2391     0.5266 H       
  17 H17            2.0764     0.0636    -1.6665 H       
  18 H18           -1.2155    -1.7703    -0.0685 H       
  19 H19           -3.3385    -0.5424    -0.0879 H       
  20 H20           -3.3477     1.9191    -0.0186 H       
  21 H21           -1.2165     3.1525     0.0389 H       
  22 H22            4.0246    -1.2367    -1.4101 H       
  23 H23            4.0482    -1.0123     0.3667 H       
  24 H24            2.8436    -3.2038    -1.1599 H       
  25 H25            2.9136    -3.0065     0.6176 H       
  26 H26            0.5927    -2.7191     0.4122 H       
  27 H27            0.7128    -2.2244    -1.3066 H       
@<TRIPOS>BOND
   1    1    2 ar
   2    1    3 1
   3    1   12 ar
   4    2    9 ar
   5    2    6 1
   6    3    4 am
   7    3    7 2
   8    3    8 2
   9    4    5 1
  10    4   16 1
  11    5    6 1
  12    5   13 1
  13    5   17 1
  14    6   15 1
  15    9   10 ar
  16    9   18 1
  17   10   11 ar
  18   10   19 1
  19   11   12 ar
  20   11   20 1
  21   12   21 1
  22   13   14 1
  23   13   22 1
  24   13   23 1
  25   14   15 1
  26   14   24 1
  27   14   25 1
  28   15   26 1
  29   15   27 1

#	End of record

