#	Name: ASD05430685
#	Creating user name:	WinNT
#	Creation time:	15. 06. 2019 21:00

#	Modifying user name:	WinNT
#	Modification time:	15. 06. 2019 21:00

#	Program:	/corina/corina34_cracker 3.40 0067  02.08.2006

@<TRIPOS>MOLECULE
ASD05430685
  24   24    0    0    0
SMALL
NO_CHARGES


@<TRIPOS>ATOM
   1 C1            -0.0167     1.3782     0.0096 C.ar    
   2 C2             0.0021    -0.0041     0.0020 C.ar    
   3 C3            -1.1849    -0.7118     0.0091 C.ar    
   4 C4            -2.4106     1.3485     0.0439 C.ar    
   5 C5            -1.2224     2.0541     0.0305 C.ar    
   6 C6             1.2784     2.1488     0.0014 C.3     
   7 C7            -2.3932    -0.0359     0.0243 C.ar    
   8 C8             2.0735     1.7965    -1.2574 C.3     
   9 C9             0.9791     3.6492     0.0123 C.3     
  10 C10            2.0973     1.7831     1.2409 C.3     
  11 F11           -3.5541    -0.7268     0.0373 F       
  12 H12            0.9447    -0.5311    -0.0098 H       
  13 H13           -1.1700    -1.7917     0.0024 H       
  14 H14           -3.3525     1.8767     0.0606 H       
  15 H15           -1.2357     3.1339     0.0458 H       
  16 H16            1.4900     2.0571    -2.1405 H       
  17 H17            3.0102     2.3539    -1.2634 H       
  18 H18            2.2867     0.7276    -1.2652 H       
  19 H19            0.4127     3.9002     0.9091 H       
  20 H20            1.9158     4.2066     0.0064 H       
  21 H21            0.3957     3.9098    -0.8708 H       
  22 H22            2.3105     0.7142     1.2331 H       
  23 H23            3.0340     2.3405     1.2350 H       
  24 H24            1.5309     2.0341     2.1377 H       
@<TRIPOS>BOND
   1    1    2 ar
   2    1    6 1
   3    1    5 ar
   4    2    3 ar
   5    2   12 1
   6    3    7 ar
   7    3   13 1
   8    4    5 ar
   9    4    7 ar
  10    4   14 1
  11    5   15 1
  12    6    8 1
  13    6    9 1
  14    6   10 1
  15    7   11 1
  16    8   16 1
  17    8   17 1
  18    8   18 1
  19    9   19 1
  20    9   20 1
  21    9   21 1
  22   10   22 1
  23   10   23 1
  24   10   24 1

#	End of record

