#	Name: ASD01913141
#	Creating user name:	WinNT
#	Creation time:	15. 06. 2019 20:01

#	Modifying user name:	WinNT
#	Modification time:	15. 06. 2019 20:01

#	Program:	/corina/corina34_cracker 3.40 0067  02.08.2006

@<TRIPOS>MOLECULE
ASD01913141
  48   50    0    0    0
SMALL
NO_CHARGES


@<TRIPOS>ATOM
   1 C1             0.0437     1.1625     0.0635 C.ar    
   2 C2             0.0316    -0.2217     0.0879 C.ar    
   3 C3            -1.1705    -0.9026     0.0977 C.ar    
   4 C4            -2.3656    -0.1987     0.0831 C.ar    
   5 C5            -2.3520     1.1881     0.0587 C.ar    
   6 C6            -1.1485     1.8665     0.0543 C.ar    
   7 F7             1.2199     1.8271     0.0544 F       
   8 O8            -3.5491    -0.8675     0.0923 O.3     
   9 C9            -4.7403    -0.0783     0.0762 C.3     
  10 C10           -5.9623    -0.9989     0.0897 C.3     
  11 C11           -7.2185    -0.1666     0.0727 C.2     
  12 N12           -8.4250    -0.7673     0.0807 N.am    
  13 C13           -9.6634     0.0260     0.0644 C.3     
  14 C14          -10.5623    -0.4978    -1.0606 C.3     
  15 N15          -10.7538    -1.9450    -0.8964 N.3     
  16 C16           -9.4814    -2.6684    -1.0208 C.3     
  17 C17           -8.5381    -2.2336     0.0997 C.3     
  18 O18           -7.1438     1.0437     0.0519 O.2     
  19 C19          -11.6975    -2.4315    -1.8051 C.ar    
  20 C20          -11.3064    -3.2970    -2.8180 C.ar    
  21 C21          -12.2418    -3.7766    -3.7145 C.ar    
  22 C22          -13.5663    -3.3957    -3.6046 C.ar    
  23 C23          -13.9601    -2.5334    -2.5974 C.ar    
  24 C24          -13.0311    -2.0547    -1.6936 C.ar    
  25 Cl25         -13.5258    -0.9729    -0.4293 Cl      
  26 C26          -15.4048    -2.1206    -2.4820 C.3     
  27 F27          -16.1475    -2.7337    -3.4967 F       
  28 F28          -15.9041    -2.5142    -1.2357 F       
  29 F29          -15.5040    -0.7307    -2.6063 F       
  30 H30            0.9623    -0.7695     0.0989 H       
  31 H31           -1.1796    -1.9824     0.1164 H       
  32 H32           -3.2818     1.7373     0.0469 H       
  33 H33           -1.1377     2.9462     0.0356 H       
  34 H34           -4.7612     0.5661     0.9551 H       
  35 H35           -4.7576     0.5353    -0.8245 H       
  36 H36           -5.9414    -1.6432    -0.7893 H       
  37 H37           -5.9451    -1.6124     0.9904 H       
  38 H38          -10.1764    -0.0763     1.0207 H       
  39 H39           -9.4244     1.0741    -0.1157 H       
  40 H40          -11.5289     0.0042    -1.0175 H       
  41 H41          -10.0920    -0.3001    -2.0239 H       
  42 H42           -9.6640    -3.7405    -0.9488 H       
  43 H43           -9.0261    -2.4405    -1.9846 H       
  44 H44           -7.5559    -2.6803    -0.0546 H       
  45 H45           -8.9410    -2.5514     1.0614 H       
  46 H46          -10.2719    -3.5946    -2.9051 H       
  47 H47          -11.9379    -4.4498    -4.5024 H       
  48 H48          -14.2951    -3.7721    -4.3072 H       
@<TRIPOS>BOND
   1    1    2 ar
   2    1    7 1
   3    1    6 ar
   4    2    3 ar
   5    2   30 1
   6    3    4 ar
   7    3   31 1
   8    4    5 ar
   9    4    8 1
  10    5    6 ar
  11    5   32 1
  12    6   33 1
  13    8    9 1
  14    9   10 1
  15    9   34 1
  16    9   35 1
  17   10   11 1
  18   10   36 1
  19   10   37 1
  20   11   12 am
  21   11   18 2
  22   12   13 1
  23   12   17 1
  24   13   14 1
  25   13   38 1
  26   13   39 1
  27   14   15 1
  28   14   40 1
  29   14   41 1
  30   15   16 1
  31   15   19 1
  32   16   17 1
  33   16   42 1
  34   16   43 1
  35   17   44 1
  36   17   45 1
  37   19   20 ar
  38   19   24 ar
  39   20   21 ar
  40   20   46 1
  41   21   22 ar
  42   21   47 1
  43   22   23 ar
  44   22   48 1
  45   23   24 ar
  46   23   26 1
  47   24   25 1
  48   26   27 1
  49   26   28 1
  50   26   29 1

#	End of record

