#	Name: ASD03520010
#	Creating user name:	WinNT
#	Creation time:	15. 06. 2019 20:42

#	Modifying user name:	WinNT
#	Modification time:	15. 06. 2019 20:42

#	Program:	/corina/corina34_cracker 3.40 0067  02.08.2006

@<TRIPOS>MOLECULE
ASD03520010
  57   61    0    0    0
SMALL
NO_CHARGES


@<TRIPOS>ATOM
   1 C1            -0.0167     1.3791     0.0096 C.ar    
   2 C2             0.0021    -0.0041     0.0020 C.ar    
   3 C3             1.2141    -0.6837    -0.0109 C.ar    
   4 C4             2.4165     0.0115    -0.0126 C.ar    
   5 C5             2.4207     1.3952    -0.0033 C.ar    
   6 C6             1.1955     2.0872     0.0019 C.ar    
   7 O7             3.5958     2.0675     0.0029 O.3     
   8 C8             3.6161     3.4158    -0.4653 C.3     
   9 C9             2.5387     4.2258     0.2705 C.3     
  10 C10            1.2054     3.5541    -0.0054 C.2     
  11 C11            4.9703     4.0206    -0.1979 C.ar    
  12 C12            5.6722     3.6727     0.9411 C.ar    
  13 C13            6.9144     4.2282     1.1922 C.ar    
  14 C14            7.4672     5.1451     0.2951 C.ar    
  15 C15            6.7535     5.4780    -0.8471 C.ar    
  16 C16            5.5170     4.9214    -1.0945 C.ar    
  17 O17            8.6502     5.8183     0.3517 O.3     
  18 C18            8.9867     6.2932    -0.9631 C.3     
  19 C19            7.6013     6.4615    -1.6306 C.3     
  20 C20            9.8157     5.2750    -1.7027 C.ar    
  21 C21           10.8573     5.6899    -2.5121 C.ar    
  22 C22           11.6202     4.7552    -3.1927 C.ar    
  23 C23           11.3358     3.3992    -3.0596 C.ar    
  24 C24           10.2909     2.9903    -2.2471 C.ar    
  25 C25            9.5368     3.9282    -1.5661 C.ar    
  26 O26           12.0816     2.4778    -3.7260 O.3     
  27 O27           12.6447     5.1616    -3.9895 O.3     
  28 C28           12.8784     6.5685    -4.0787 C.3     
  29 O29            7.5984     3.8811     2.3152 O.3     
  30 O30            0.1993     4.1979    -0.2210 O.2     
  31 O31            2.5185     5.5676    -0.2206 O.3     
  32 O32           -1.1974     2.0462     0.0189 O.3     
  33 O33            1.2229    -2.0404    -0.0216 O.3     
  34 C34            7.0813     7.8901    -1.4581 C.3     
  35 O35            5.7927     8.0045    -2.0651 O.3     
  36 H36           -0.9261    -0.5562     0.0065 H       
  37 H37            3.3511    -0.5296    -0.0208 H       
  38 H38            3.4152     3.4319    -1.5365 H       
  39 H39            2.7403     4.2246     1.3417 H       
  40 H40            5.2491     2.9645     1.6381 H       
  41 H41            4.9726     5.1918    -1.9871 H       
  42 H42            9.5071     7.2493    -0.9069 H       
  43 H43            7.6411     6.1878    -2.6849 H       
  44 H44           11.0757     6.7427    -2.6140 H       
  45 H45           10.0681     1.9387    -2.1422 H       
  46 H46            8.7252     3.6079    -0.9296 H       
  47 H47           12.8508     2.1626    -3.2320 H       
  48 H48           13.1037     6.9630    -3.0879 H       
  49 H49           13.7210     6.7554    -4.7444 H       
  50 H50           11.9887     7.0604    -4.4718 H       
  51 H51            8.1814     3.1181     2.2006 H       
  52 H52            1.8583     6.1321     0.2044 H       
  53 H53           -1.5356     2.2349     0.9049 H       
  54 H54            1.2200    -2.4267    -0.9080 H       
  55 H55            7.0046     8.1230    -0.3960 H       
  56 H56            7.7705     8.5875    -1.9342 H       
  57 H57            5.4013     8.8858    -1.9939 H       
@<TRIPOS>BOND
   1    1    2 ar
   2    1    6 ar
   3    1   32 1
   4    2    3 ar
   5    2   36 1
   6    3    4 ar
   7    3   33 1
   8    4    5 ar
   9    4   37 1
  10    5    7 1
  11    5    6 ar
  12    6   10 1
  13    7    8 1
  14    8    9 1
  15    8   11 1
  16    8   38 1
  17    9   10 1
  18    9   31 1
  19    9   39 1
  20   10   30 2
  21   11   12 ar
  22   11   16 ar
  23   12   13 ar
  24   12   40 1
  25   13   14 ar
  26   13   29 1
  27   14   15 ar
  28   14   17 1
  29   15   16 ar
  30   15   19 1
  31   16   41 1
  32   17   18 1
  33   18   19 1
  34   18   20 1
  35   18   42 1
  36   19   34 1
  37   19   43 1
  38   20   21 ar
  39   20   25 ar
  40   21   22 ar
  41   21   44 1
  42   22   23 ar
  43   22   27 1
  44   23   24 ar
  45   23   26 1
  46   24   25 ar
  47   24   45 1
  48   25   46 1
  49   26   47 1
  50   27   28 1
  51   28   48 1
  52   28   49 1
  53   28   50 1
  54   29   51 1
  55   31   52 1
  56   32   53 1
  57   33   54 1
  58   34   35 1
  59   34   55 1
  60   34   56 1
  61   35   57 1

#	End of record

