#	Name: ASD01040012
#	Creating user name:	WinNT
#	Creation time:	15. 06. 2019 18:58

#	Modifying user name:	WinNT
#	Modification time:	15. 06. 2019 18:58

#	Program:	/corina/corina34_cracker 3.40 0067  02.08.2006

@<TRIPOS>MOLECULE
ASD01040012
  43   45    0    0    0
SMALL
NO_CHARGES


@<TRIPOS>ATOM
   1 C1            -0.0167     1.3770     0.0096 C.ar    
   2 C2             1.1761     2.0859     0.0020 C.ar    
   3 C3             2.3846     1.4052    -0.0132 C.ar    
   4 C4             2.3980     0.0237    -0.0207 C.ar    
   5 C5             1.2082    -0.6803    -0.0131 C.ar    
   6 C6             0.0021    -0.0041     0.0020 C.ar    
   7 C7             1.2257    -2.1872    -0.0219 C.3     
   8 C8             0.4875    -2.7041    -1.2564 C.3     
   9 C9             0.4534    -4.2130    -1.2894 C.3     
  10 C10           -0.0819    -4.8436     0.0084 C.3     
  11 C11            0.6151    -4.2423     1.2311 C.3     
  12 C12            0.5096    -2.7198     1.2244 C.3     
  13 C13            1.8548    -4.8338    -1.4387 C.3     
  14 C14            1.6475    -6.3007    -0.9963 C.3     
  15 C15            0.3975    -6.3162    -0.0967 C.3     
  16 C16           -1.6043    -4.7310     0.1107 C.3     
  17 O17           -0.6227    -7.1235    -0.6879 O.3     
  18 O18            1.1603     3.4448     0.0090 O.3     
  19 C19            3.7106    -0.7165    -0.0377 C.3     
  20 F20            3.8042    -1.5261     1.0994 F       
  21 F21            3.7815    -1.5138    -1.1851 F       
  22 F22            4.7646     0.2034    -0.0432 F       
  23 H23           -0.9588     1.9047     0.0259 H       
  24 H24            3.3144     1.9547    -0.0194 H       
  25 H25           -0.9261    -0.5563     0.0079 H       
  26 H26            2.2560    -2.5427    -0.0340 H       
  27 H27           -0.5343    -2.3248    -1.2452 H       
  28 H28            0.9917    -2.3396    -2.1514 H       
  29 H29           -0.1733    -4.5399    -2.1191 H       
  30 H30            0.1482    -4.6300     2.1366 H       
  31 H31            1.6671    -4.5274     1.2202 H       
  32 H32            0.9826    -2.3154     2.1193 H       
  33 H33           -0.5398    -2.4263     1.1972 H       
  34 H34            2.1861    -4.7887    -2.4761 H       
  35 H35            2.5683    -4.3327    -0.7846 H       
  36 H36            1.4878    -6.9347    -1.8684 H       
  37 H37            2.5158    -6.6481    -0.4364 H       
  38 H38            0.6523    -6.6985     0.8917 H       
  39 H39           -2.0642    -5.2446    -0.7337 H       
  40 H40           -1.9408    -5.1884     1.0411 H       
  41 H41           -1.8926    -3.6799     0.0974 H       
  42 H42           -0.3823    -8.0555    -0.7807 H       
  43 H43            1.1640     3.8336     0.8944 H       
@<TRIPOS>BOND
   1    1    6 ar
   2    1    2 ar
   3    1   23 1
   4    2    3 ar
   5    2   18 1
   6    3    4 ar
   7    3   24 1
   8    4   19 1
   9    4    5 ar
  10    5    7 1
  11    5    6 ar
  12    6   25 1
  13    7   26 1
  14    7    8 1
  15    7   12 1
  16    8    9 1
  17    8   27 1
  18    8   28 1
  19    9   13 1
  20    9   29 1
  21    9   10 1
  22   10   11 1
  23   10   15 1
  24   10   16 1
  25   11   30 1
  26   11   31 1
  27   11   12 1
  28   12   32 1
  29   12   33 1
  30   13   14 1
  31   13   34 1
  32   13   35 1
  33   14   36 1
  34   14   37 1
  35   14   15 1
  36   15   38 1
  37   15   17 1
  38   16   39 1
  39   16   40 1
  40   16   41 1
  41   17   42 1
  42   18   43 1
  43   19   22 1
  44   19   20 1
  45   19   21 1

#	End of record

