#	Name: ASD00730003
#	Creating user name:	WinNT
#	Creation time:	15. 06. 2019 18:37

#	Modifying user name:	WinNT
#	Modification time:	15. 06. 2019 18:37

#	Program:	/corina/corina34_cracker 3.40 0067  02.08.2006

@<TRIPOS>MOLECULE
ASD00730003
  56   56    0    0    0
SMALL
NO_CHARGES


@<TRIPOS>ATOM
   1 C1            -0.0187     1.5258     0.0104 C.3     
   2 C2             0.0021    -0.0041     0.0020 C.3     
   3 C3             0.7182    -0.4975    -1.2568 C.3     
   4 N4             2.1249    -0.0911    -1.2094 N.pl3   
   5 C5             2.8470     0.0562    -2.3902 C.ar    
   6 C6             2.2481    -0.1788    -3.6291 C.ar    
   7 C7             2.9946    -0.0229    -4.7769 C.ar    
   8 C8             2.3560    -0.2746    -6.1186 C.3     
   9 N9             4.2615     0.3444    -4.7175 N.ar    
  10 C10            4.8677     0.5772    -3.5635 C.ar    
  11 C11            4.1831     0.4473    -2.3656 C.ar    
  12 C12            4.8779     0.7135    -1.0551 C.3     
  13 O13            6.1715     0.9526    -3.5541 O.3     
  14 C14            6.8088     1.0753    -4.7481 C.ar    
  15 C15            6.8032     2.2908    -5.4172 C.ar    
  16 C16            6.0902     3.4768    -4.8205 C.3     
  17 C17            7.4521     2.4129    -6.6305 C.ar    
  18 C18            8.1069     1.3252    -7.1783 C.ar    
  19 C19            8.1139     0.1128    -6.5136 C.ar    
  20 C20            7.4710    -0.0132    -5.2974 C.ar    
  21 C21            7.4791    -1.3349    -4.5735 C.3     
  22 C22            8.8135     1.4612    -8.5024 C.3     
  23 C23            0.6303    -2.0233    -1.3286 C.3     
  24 C24            1.2362    -2.5075    -2.6474 C.3     
  25 H25            1.0039     1.9031     0.0027 H       
  26 H26           -0.5459     1.8868    -0.8726 H       
  27 H27           -0.5289     1.8773     0.9072 H       
  28 H28            0.5293    -0.3651     0.8851 H       
  29 H29           -1.0205    -0.3814     0.0098 H       
  30 H30            0.2444    -0.0644    -2.1377 H       
  31 H31            2.5531     0.0754    -0.3551 H       
  32 H32            1.2124    -0.4796    -3.6873 H       
  33 H33            1.9187     0.6513    -6.4922 H       
  34 H34            3.1116    -0.6286    -6.8199 H       
  35 H35            1.5758    -1.0286    -6.0139 H       
  36 H36            4.7660     1.7652    -0.7916 H       
  37 H37            4.4333     0.0945    -0.2758 H       
  38 H38            5.9369     0.4734    -1.1499 H       
  39 H39            6.7806     4.0354    -4.1884 H       
  40 H40            5.7265     4.1221    -5.6201 H       
  41 H41            5.2480     3.1307    -4.2213 H       
  42 H42            7.4478     3.3587    -7.1519 H       
  43 H43            8.6258    -0.7354    -6.9438 H       
  44 H44            8.3456    -1.3825    -3.9138 H       
  45 H45            6.5677    -1.4317    -3.9836 H       
  46 H46            7.5301    -2.1465    -5.2993 H       
  47 H47            9.8460     1.7671    -8.3334 H       
  48 H48            8.7988     0.5033    -9.0222 H       
  49 H49            8.3069     2.2117    -9.1092 H       
  50 H50            1.1806    -2.4586    -0.4944 H       
  51 H51           -0.4142    -2.3300    -1.2744 H       
  52 H52            1.1736    -3.5945    -2.6986 H       
  53 H53            0.6860    -2.0722    -3.4816 H       
  54 H54            2.2808    -2.2008    -2.7016 H       
  55 Cl55          14.8460     9.1221     5.9072 Cl      
  56 H56           14.8460    10.4921     5.9072 H       
@<TRIPOS>BOND
   1    1    2 1
   2    1   25 1
   3    1   26 1
   4    1   27 1
   5    2    3 1
   6    2   28 1
   7    2   29 1
   8    3    4 1
   9    3   23 1
  10    3   30 1
  11    4    5 1
  12    4   31 1
  13    5    6 ar
  14    5   11 ar
  15    6    7 ar
  16    6   32 1
  17    7    8 1
  18    7    9 ar
  19    8   33 1
  20    8   34 1
  21    8   35 1
  22    9   10 ar
  23   10   11 ar
  24   10   13 1
  25   11   12 1
  26   12   36 1
  27   12   37 1
  28   12   38 1
  29   13   14 1
  30   14   15 ar
  31   14   20 ar
  32   15   16 1
  33   15   17 ar
  34   16   39 1
  35   16   40 1
  36   16   41 1
  37   17   18 ar
  38   17   42 1
  39   18   19 ar
  40   18   22 1
  41   19   20 ar
  42   19   43 1
  43   20   21 1
  44   21   44 1
  45   21   45 1
  46   21   46 1
  47   22   47 1
  48   22   48 1
  49   22   49 1
  50   23   24 1
  51   23   50 1
  52   23   51 1
  53   24   52 1
  54   24   53 1
  55   24   54 1
  56   55   56 1

#	End of record

