#	Name: ASD01840035
#	Creating user name:	WinNT
#	Creation time:	15. 06. 2019 19:37

#	Modifying user name:	WinNT
#	Modification time:	15. 06. 2019 19:37

#	Program:	/corina/corina34_cracker 3.40 0067  02.08.2006

@<TRIPOS>MOLECULE
ASD01840035
  33   35    0    0    0
SMALL
NO_CHARGES


@<TRIPOS>ATOM
   1 C1             0.1304     1.8107    -1.3917 C.ar    
   2 C2             0.2737     0.6607    -2.1342 C.ar    
   3 C3             1.4810    -0.0221    -2.1075 C.ar    
   4 N4             2.4886     0.4099    -1.3859 N.ar    
   5 C5             2.4108     1.5189    -0.6448 C.ar    
   6 C6             1.2259     2.2629    -0.6200 C.ar    
   7 S7             3.6211     2.2725     0.3865 S.3     
   8 C8             2.5376     3.5723     0.8416 C.2     
   9 C9             1.3257     3.4316     0.2367 C.2     
  10 C10           -1.1671     2.5770    -1.4057 C.3     
  11 C11            1.6381    -1.2813    -2.9204 C.3     
  12 N12            0.2817     4.3218     0.4230 N.pl3   
  13 C13            2.8765     4.6266     1.7191 C.2     
  14 C14            4.1779     4.6114     2.4277 C.ar    
  15 O15            2.0990     5.5480     1.8931 O.2     
  16 C16            4.8171     5.8037     2.7823 C.ar    
  17 C17            6.0288     5.7432     3.4419 C.ar    
  18 N18            6.5822     4.5833     3.7364 N.ar    
  19 C19            6.0135     3.4365     3.4204 C.ar    
  20 C20            4.7981     3.4044     2.7656 C.ar    
  21 H21           -0.5469     0.2928    -2.7322 H       
  22 H22           -1.7862     2.2586    -0.5670 H       
  23 H23           -0.9601     3.6437    -1.3201 H       
  24 H24           -1.6936     2.3829    -2.3402 H       
  25 H25            2.0082    -1.0285    -3.9140 H       
  26 H26            2.3469    -1.9463    -2.4269 H       
  27 H27            0.6727    -1.7798    -3.0082 H       
  28 H28           -0.6314     4.0402     0.2561 H       
  29 H29            0.4635     5.2270     0.7204 H       
  30 H30            4.3699     6.7573     2.5436 H       
  31 H31            6.5302     6.6585     3.7199 H       
  32 H32            6.5027     2.5097     3.6813 H       
  33 H33            4.3357     2.4613     2.5143 H       
@<TRIPOS>BOND
   1    1    2 ar
   2    1    6 ar
   3    1   10 1
   4    2    3 ar
   5    2   21 1
   6    3    4 ar
   7    3   11 1
   8    4    5 ar
   9    5    7 1
  10    5    6 ar
  11    6    9 1
  12    7    8 1
  13    8    9 2
  14    8   13 1
  15    9   12 1
  16   10   22 1
  17   10   23 1
  18   10   24 1
  19   11   25 1
  20   11   26 1
  21   11   27 1
  22   12   28 1
  23   12   29 1
  24   13   14 1
  25   13   15 2
  26   14   16 ar
  27   14   20 ar
  28   16   17 ar
  29   16   30 1
  30   17   18 ar
  31   17   31 1
  32   18   19 ar
  33   19   20 ar
  34   19   32 1
  35   20   33 1

#	End of record

