#	Name: ASD01120368
#	Creating user name:	WinNT
#	Creation time:	15. 06. 2019 18:59

#	Modifying user name:	WinNT
#	Modification time:	15. 06. 2019 18:59

#	Program:	/corina/corina34_cracker 3.40 0067  02.08.2006

@<TRIPOS>MOLECULE
ASD01120368
  42   44    0    0    0
SMALL
NO_CHARGES


@<TRIPOS>ATOM
   1 C1            -0.0307     1.3735     0.1707 C.ar    
   2 C2             0.0040    -0.0121     0.1336 C.ar    
   3 C3             1.1835    -0.6812    -0.1126 C.ar    
   4 C4             2.3592     0.0316    -0.3280 C.ar    
   5 C5             2.3350     1.4394    -0.2931 C.ar    
   6 C6             1.1223     2.1081    -0.0403 C.ar    
   7 N7             3.6539    -0.3510    -0.5903 N.pl3   
   8 C8             4.4349     0.7839    -0.7191 C.2     
   9 C9             3.6529     1.8834    -0.5421 C.2     
  10 C10            4.1108     3.3180    -0.6012 C.3     
  11 C11            4.0952     3.7989    -2.0535 C.3     
  12 C12            4.5530     5.2335    -2.1126 C.2     
  13 O13            4.6195     5.8687    -3.2932 O.3     
  14 O14            4.8603     5.8119    -1.0972 O.2     
  15 C15            5.8745     0.7994    -1.0005 C.2     
  16 O16            6.4645     1.8586    -1.0932 O.2     
  17 O17            6.5436    -0.3613    -1.1565 O.3     
  18 N18            1.0838     3.4993    -0.0024 N.pl3   
  19 C19            1.4816     4.1779     1.1521 C.ar    
  20 C20            1.5604     5.5650     1.1521 C.ar    
  21 C21            1.9540     6.2326     2.2951 C.ar    
  22 C22            2.2696     5.5220     3.4388 C.ar    
  23 C23            2.1928     4.1412     3.4421 C.ar    
  24 C24            1.7939     3.4675     2.3045 C.ar    
  25 N25            1.1999    -2.1611    -0.1476 N.pl3   
  26 O26            0.1717    -2.7861     0.0412 O.2     
  27 O27            2.2416    -2.7536    -0.3651 O.2     
  28 H28           -0.9642     1.8823     0.3609 H       
  29 H29           -0.9035    -0.5735     0.3000 H       
  30 H30            3.9677    -1.2653    -0.6715 H       
  31 H31            3.4405     3.9381    -0.0059 H       
  32 H32            5.1233     3.3929    -0.2045 H       
  33 H33            4.7654     3.1788    -2.6488 H       
  34 H34            3.0827     3.7240    -2.4502 H       
  35 H35            4.9189     6.7881    -3.2808 H       
  36 H36            7.4910    -0.3005    -1.3406 H       
  37 H37            0.7808     3.9974    -0.7776 H       
  38 H38            1.3144     6.1205     0.2592 H       
  39 H39            2.0158     7.3108     2.2957 H       
  40 H40            2.5772     6.0466     4.3313 H       
  41 H41            2.4406     3.5894     4.3368 H       
  42 H42            1.7337     2.3892     2.3079 H       
@<TRIPOS>BOND
   1    1    2 ar
   2    1    6 ar
   3    1   28 1
   4    2    3 ar
   5    2   29 1
   6    3   25 1
   7    3    4 ar
   8    4    5 ar
   9    4    7 1
  10    5    6 ar
  11    5    9 1
  12    6   18 1
  13    7    8 1
  14    7   30 1
  15    8    9 2
  16    8   15 1
  17    9   10 1
  18   10   11 1
  19   10   31 1
  20   10   32 1
  21   11   12 1
  22   11   33 1
  23   11   34 1
  24   12   13 1
  25   12   14 2
  26   13   35 1
  27   15   16 2
  28   15   17 1
  29   17   36 1
  30   18   19 1
  31   18   37 1
  32   19   20 ar
  33   19   24 ar
  34   20   21 ar
  35   20   38 1
  36   21   22 ar
  37   21   39 1
  38   22   23 ar
  39   22   40 1
  40   23   24 ar
  41   23   41 1
  42   24   42 1
  43   25   26 2
  44   25   27 2

#	End of record

