#	Name: ASD07300469
#	Creating user name:	WinNT
#	Creation time:	15. 06. 2019 21:09

#	Modifying user name:	WinNT
#	Modification time:	15. 06. 2019 21:09

#	Program:	/corina/corina34_cracker 3.40 0067  02.08.2006

@<TRIPOS>MOLECULE
ASD07300469
  52   55    0    0    0
SMALL
NO_CHARGES


@<TRIPOS>ATOM
   1 N1            -0.0178     1.4611     0.0101 N.am    
   2 C2             0.0021    -0.0041     0.0020 C.3     
   3 C3             1.4908    -0.3872    -0.0143 C.3     
   4 C4             2.2251     0.9347    -0.0142 C.ar    
   5 C5             3.5770     1.2183    -0.0262 C.ar    
   6 C6             4.0117     2.5362    -0.0240 C.ar    
   7 C7             3.0816     3.5671    -0.0096 C.ar    
   8 C8             1.7336     3.2828     0.0024 C.ar    
   9 C9             1.2914     1.9583     0.0002 C.ar    
  10 C10           -1.1323     2.2189     0.0197 C.2     
  11 O11           -1.0430     3.4307     0.0254 O.2     
  12 O12           -2.3447     1.6331     0.0230 O.3     
  13 C13            5.9461     4.0972    -0.0350 C.ar    
  14 C14            7.3333     3.9215    -0.0487 C.ar    
  15 C15            8.1597     5.0352    -0.0461 C.ar    
  16 C16            7.5691     6.2905    -0.0298 C.ar    
  17 C17            6.1906     6.3903    -0.0168 C.ar    
  18 N18            5.4278     5.3142    -0.0197 N.ar    
  19 C19            6.3788     1.9187    -0.0493 C.2     
  20 N20            5.3843     2.8256    -0.0358 N.am    
  21 N21            7.5684     2.5499    -0.0630 N.am    
  22 O22            6.2262     0.7115    -0.0536 O.2     
  23 C23            8.8832     1.9040    -0.0802 C.3     
  24 C24            9.3536     1.6664     1.3562 C.3     
  25 C25           -3.5011     2.5112     0.0334 C.3     
  26 C26           -3.4775     3.4004    -1.2115 C.3     
  27 C27           -4.7796     1.6708     0.0357 C.3     
  28 C28           -3.4646     3.3877     1.2869 C.3     
  29 H29           -0.4788    -0.3936     0.8993 H       
  30 H30           -0.4959    -0.3840    -0.8900 H       
  31 H31            1.7447    -0.9632     0.8756 H       
  32 H32            1.7276    -0.9536    -0.9150 H       
  33 H33            4.2968     0.4131    -0.0371 H       
  34 H34            3.4157     4.5942    -0.0075 H       
  35 H35            1.0149     4.0889     0.0140 H       
  36 H36            9.2343     4.9282    -0.0561 H       
  37 H37            8.1803     7.1809    -0.0269 H       
  38 H38            5.7297     7.3669    -0.0038 H       
  39 H39            8.8124     0.9496    -0.6019 H       
  40 H40            9.5973     2.5472    -0.5946 H       
  41 H41            9.4244     2.6208     1.8779 H       
  42 H42            8.6395     1.0232     1.8706 H       
  43 H43           10.3318     1.1859     1.3434 H       
  44 H44           -3.5035     2.7759    -2.1045 H       
  45 H45           -4.3455     4.0595    -1.2037 H       
  46 H46           -2.5666     3.9990    -1.2132 H       
  47 H47           -4.7964     1.0374     0.9226 H       
  48 H48           -5.6477     2.3300     0.0435 H       
  49 H49           -4.8056     1.0464    -0.8573 H       
  50 H50           -2.5537     3.9864     1.2853 H       
  51 H51           -4.3326     4.0469     1.2947 H       
  52 H52           -3.4814     2.7542     2.1738 H       
@<TRIPOS>BOND
   1    1    2 1
   2    1    9 1
   3    1   10 am
   4    2    3 1
   5    2   29 1
   6    2   30 1
   7    3    4 1
   8    3   31 1
   9    3   32 1
  10    4    5 ar
  11    4    9 ar
  12    5    6 ar
  13    5   33 1
  14    6    7 ar
  15    6   20 1
  16    7    8 ar
  17    7   34 1
  18    8    9 ar
  19    8   35 1
  20   10   11 2
  21   10   12 1
  22   12   25 1
  23   13   14 ar
  24   13   18 ar
  25   13   20 1
  26   14   15 ar
  27   14   21 1
  28   15   16 ar
  29   15   36 1
  30   16   17 ar
  31   16   37 1
  32   17   18 ar
  33   17   38 1
  34   19   20 am
  35   19   21 am
  36   19   22 2
  37   21   23 1
  38   23   24 1
  39   23   39 1
  40   23   40 1
  41   24   41 1
  42   24   42 1
  43   24   43 1
  44   25   26 1
  45   25   28 1
  46   25   27 1
  47   26   44 1
  48   26   45 1
  49   26   46 1
  50   27   47 1
  51   27   48 1
  52   27   49 1
  53   28   50 1
  54   28   51 1
  55   28   52 1

#	End of record

