#	Name: ASD04840050
#	Creating user name:	WinNT
#	Creation time:	15. 06. 2019 20:52

#	Modifying user name:	WinNT
#	Modification time:	15. 06. 2019 20:52

#	Program:	/corina/corina34_cracker 3.40 0067  02.08.2006

@<TRIPOS>MOLECULE
ASD04840050
  35   36    0    0    0
SMALL
NO_CHARGES


@<TRIPOS>ATOM
   1 C1            -0.0167     1.3837     0.0096 C.ar    
   2 C2             0.0021    -0.0041     0.0020 C.ar    
   3 C3             1.1967    -0.6906    -0.0126 C.ar    
   4 C4             2.3970     0.0119    -0.0203 C.ar    
   5 C5             2.3725     1.4187    -0.0129 C.ar    
   6 C6             1.1508     2.0939     0.0023 C.ar    
   7 N7             3.7195    -0.3711    -0.0350 N.pl3   
   8 C8             4.5243     0.7355    -0.0372 C.2     
   9 C9             3.7731     1.8479    -0.0243 C.2     
  10 C10            4.2753     3.2687    -0.0220 C.3     
  11 C11            4.3401     3.7844     1.4170 C.3     
  12 P12            5.5842     2.8317     2.3485 P.3     
  13 O13            5.2071     1.4005     2.3539 O.2     
  14 O14            7.0250     3.0044     1.6512 O.3     
  15 O15            5.6523     3.3744     3.8628 O.3     
  16 C16            4.1942    -1.7571    -0.0461 C.3     
  17 P17            4.8046     5.5473     1.4104 P.3     
  18 O18            6.1290     5.7060     0.7694 O.2     
  19 O19            3.7058     6.3887     0.5877 O.3     
  20 O20            4.8727     6.0899     2.9246 O.3     
  21 H21           -0.9617     1.9065     0.0169 H       
  22 H22           -0.9290    -0.5514     0.0080 H       
  23 H23            1.2009    -1.7706    -0.0177 H       
  24 H24            1.1284     3.1736     0.0080 H       
  25 H25            5.6041     0.7167    -0.0474 H       
  26 H26            5.2705     3.3031    -0.4654 H       
  27 H27            3.5973     3.8947    -0.6022 H       
  28 H28            3.3646     3.6675     1.8891 H       
  29 H29            7.7369     2.5234     2.0949 H       
  30 H30            5.8945     4.3077     3.9356 H       
  31 H31            4.3019    -2.0960    -1.0765 H       
  32 H32            5.1589    -1.8147     0.4581 H       
  33 H33            3.4751    -2.3916     0.4718 H       
  34 H34            2.8120     6.3305     0.9521 H       
  35 H35            5.1149     7.0233     2.9974 H       
@<TRIPOS>BOND
   1    1    2 ar
   2    1    6 ar
   3    1   21 1
   4    2    3 ar
   5    2   22 1
   6    3    4 ar
   7    3   23 1
   8    4    5 ar
   9    4    7 1
  10    5    6 ar
  11    5    9 1
  12    6   24 1
  13    7    8 1
  14    7   16 1
  15    8    9 2
  16    8   25 1
  17    9   10 1
  18   10   11 1
  19   10   26 1
  20   10   27 1
  21   11   12 1
  22   11   17 1
  23   11   28 1
  24   12   13 2
  25   12   14 1
  26   12   15 1
  27   14   29 1
  28   15   30 1
  29   16   31 1
  30   16   32 1
  31   16   33 1
  32   17   18 2
  33   17   19 1
  34   17   20 1
  35   19   34 1
  36   20   35 1

#	End of record

