#	Name: ASD02039201
#	Creating user name:	WinNT
#	Creation time:	15. 06. 2019 20:17

#	Modifying user name:	WinNT
#	Modification time:	15. 06. 2019 20:17

#	Program:	/corina/corina34_cracker 3.40 0067  02.08.2006

@<TRIPOS>MOLECULE
ASD02039201
  38   41    0    0    0
SMALL
NO_CHARGES


@<TRIPOS>ATOM
   1 N1            -0.0010     1.2804     0.2558 N.2     
   2 C2             0.0074    -0.0199     0.1292 C.2     
   3 N3             1.2988    -0.4142     0.1379 N.2     
   4 C4             2.0014     0.6839     0.2708 C.2     
   5 O5             1.1345     1.6989     0.3382 O.3     
   6 C6             3.5037     0.7835     0.3355 C.3     
   7 N7            -1.1050    -0.8434     0.0085 N.pl3   
   8 C8            -2.3907    -0.3047     0.1292 C.ar    
   9 C9            -3.4564    -0.8916    -0.5409 C.ar    
  10 C10           -4.7245    -0.3585    -0.4199 C.ar    
  11 C11           -4.9341     0.7604     0.3688 C.ar    
  12 C12           -3.8732     1.3473     1.0373 C.ar    
  13 C13           -2.6040     0.8140     0.9237 C.ar    
  14 F14           -6.1756     1.2803     0.4858 F       
  15 C15            4.0561     0.9547    -1.0561 C.ar    
  16 C16            4.2240     2.2318    -1.5776 C.ar    
  17 C17            4.7224     2.4136    -2.8363 C.ar    
  18 C18            5.0687     1.3091    -3.6111 C.ar    
  19 C19            4.8997     0.0142    -3.0843 C.ar    
  20 C20            4.3920    -0.1458    -1.7900 C.ar    
  21 N21            5.5794     1.1578    -4.8737 N.pl3   
  22 N22            5.7323    -0.2059    -5.1447 N.2     
  23 C23            5.3450    -0.9115    -4.1207 C.2     
  24 C24           -5.8812    -0.9945    -1.1471 C.3     
  25 F25           -6.8307    -0.0157    -1.4594 F       
  26 F26           -5.4201    -1.5898    -2.3262 F       
  27 H27            3.7850     1.6414     0.9461 H       
  28 H28            3.9094    -0.1262     0.7781 H       
  29 H29           -0.9904    -1.7919    -0.1595 H       
  30 H30           -3.2934    -1.7639    -1.1564 H       
  31 H31           -4.0388     2.2200     1.6516 H       
  32 H32           -1.7767     1.2718     1.4456 H       
  33 H33            3.9569     3.0911    -0.9805 H       
  34 H34            4.8473     3.4114    -3.2301 H       
  35 H35            4.2588    -1.1349    -1.3774 H       
  36 H36            5.7993     1.8806    -5.4821 H       
  37 H37            5.3527    -1.9892    -4.0510 H       
  38 H38           -6.3371    -1.7533    -0.5112 H       
@<TRIPOS>BOND
   1    1    2 2
   2    1    5 1
   3    2    3 1
   4    2    7 1
   5    3    4 2
   6    4    5 1
   7    4    6 1
   8    6   15 1
   9    6   27 1
  10    6   28 1
  11    7    8 1
  12    7   29 1
  13    8    9 ar
  14    8   13 ar
  15    9   10 ar
  16    9   30 1
  17   10   11 ar
  18   10   24 1
  19   11   12 ar
  20   11   14 1
  21   12   13 ar
  22   12   31 1
  23   13   32 1
  24   15   16 ar
  25   15   20 ar
  26   16   17 ar
  27   16   33 1
  28   17   18 ar
  29   17   34 1
  30   18   19 ar
  31   18   21 1
  32   19   20 ar
  33   19   23 1
  34   20   35 1
  35   21   22 1
  36   21   36 1
  37   22   23 2
  38   23   37 1
  39   24   25 1
  40   24   26 1
  41   24   38 1

#	End of record

