#	Name: ASD01915462
#	Creating user name:	WinNT
#	Creation time:	15. 06. 2019 20:05

#	Modifying user name:	WinNT
#	Modification time:	15. 06. 2019 20:05

#	Program:	/corina/corina34_cracker 3.40 0067  02.08.2006

@<TRIPOS>MOLECULE
ASD01915462
  38   40    0    0    0
SMALL
NO_CHARGES


@<TRIPOS>ATOM
   1 C1            -0.4285     1.7570     0.0981 C.ar    
   2 C2            -0.5656     0.4070     0.3661 C.ar    
   3 N3             0.4747    -0.3260     0.7018 N.ar    
   4 C4             1.6938     0.1921     0.7977 C.ar    
   5 C5             1.9116     1.5424     0.5434 C.ar    
   6 C6             0.8309     2.3444     0.1858 C.ar    
   7 C7            -1.9263    -0.2339     0.2727 C.3     
   8 O8             1.0008     3.6665    -0.0705 O.3     
   9 C9             2.2540     4.1813     0.0370 C.ar    
  10 C10            2.6194     4.9122     1.1594 C.ar    
  11 N11            3.8321     5.4177     1.2761 N.ar    
  12 C12            4.7472     5.2554     0.3436 C.ar    
  13 C13            4.4618     4.5329    -0.8168 C.ar    
  14 C14            3.1866     3.9777    -0.9720 C.ar    
  15 C15            2.8321    -0.6758     1.1793 C.2     
  16 N16            2.6280    -1.9847     1.4274 N.am    
  17 O17            3.9499    -0.2075     1.2686 O.2     
  18 C18            3.7115    -2.8224     1.6831 C.ar    
  19 C19            3.5062    -4.1891     1.8229 C.ar    
  20 C20            4.5937    -5.0112     2.0772 C.ar    
  21 C21            5.8531    -4.4303     2.1825 C.ar    
  22 C22            5.9810    -3.0644     2.0320 C.ar    
  23 N23            4.9279    -2.3088     1.7852 N.ar    
  24 C24            5.4595     4.3583    -1.8291 C.1     
  25 N25            6.2510     4.2198    -2.6321 N.1     
  26 F26            4.4336    -6.3451     2.2197 F       
  27 H27           -1.2883     2.3482    -0.1805 H       
  28 H28            2.9035     1.9623     0.6224 H       
  29 H29           -2.0857    -0.6023    -0.7407 H       
  30 H30           -1.9852    -1.0654     0.9750 H       
  31 H31           -2.6923     0.5024     0.5163 H       
  32 H32            1.8995     5.0697     1.9489 H       
  33 H33            5.7286     5.6859     0.4773 H       
  34 H34            2.9317     3.4130    -1.8566 H       
  35 H35            1.7268    -2.3434     1.4280 H       
  36 H36            2.5137    -4.6056     1.7351 H       
  37 H37            6.7213    -5.0414     2.3804 H       
  38 H38            6.9567    -2.6085     2.1129 H       
@<TRIPOS>BOND
   1    1    2 ar
   2    1    6 ar
   3    1   27 1
   4    2    3 ar
   5    2    7 1
   6    3    4 ar
   7    4    5 ar
   8    4   15 1
   9    5    6 ar
  10    5   28 1
  11    6    8 1
  12    7   29 1
  13    7   30 1
  14    7   31 1
  15    8    9 1
  16    9   10 ar
  17    9   14 ar
  18   10   11 ar
  19   10   32 1
  20   11   12 ar
  21   12   13 ar
  22   12   33 1
  23   13   14 ar
  24   13   24 1
  25   14   34 1
  26   15   16 am
  27   15   17 2
  28   16   18 1
  29   16   35 1
  30   18   19 ar
  31   18   23 ar
  32   19   20 ar
  33   19   36 1
  34   20   21 ar
  35   20   26 1
  36   21   22 ar
  37   21   37 1
  38   22   23 ar
  39   22   38 1
  40   24   25 3

#	End of record

