#	Name: ASD01885877
#	Creating user name:	WinNT
#	Creation time:	15. 06. 2019 19:50

#	Modifying user name:	WinNT
#	Modification time:	15. 06. 2019 19:50

#	Program:	/corina/corina34_cracker 3.40 0067  02.08.2006

@<TRIPOS>MOLECULE
ASD01885877
  50   53    0    0    0
SMALL
NO_CHARGES


@<TRIPOS>ATOM
   1 C1            -0.0170     1.4059     0.0098 C.ar    
   2 C2             1.2137     2.1096     0.0018 C.ar    
   3 C3             1.1962     3.5275     0.0097 C.ar    
   4 C4            -0.0384     4.1620     0.0249 C.ar    
   5 C5            -1.2080     3.3939     0.0319 C.ar    
   6 N6            -1.1702     2.0746     0.0299 N.ar    
   7 C7             0.0021    -0.0041     0.0020 C.ar    
   8 C8             1.1952    -0.6629    -0.0130 C.ar    
   9 C9             2.4002     0.0349    -0.0208 C.ar    
  10 C10            2.4197     1.3978    -0.0132 C.ar    
  11 C11            1.2104    -2.1698    -0.0207 C.3     
  12 C12            2.4554     4.3069     0.0024 C.2     
  13 C13            1.0758    -2.6739    -1.4590 C.3     
  14 C14           -2.5225     4.0793     0.0486 C.2     
  15 N15           -3.6596     3.3558     0.0556 N.am    
  16 O16           -2.5747     5.2932     0.0561 O.2     
  17 C17            3.5574     4.1194     0.8620 C.2     
  18 N18            4.4714     4.9972     0.5460 N.2     
  19 N19            3.9959     5.7736    -0.5175 N.pl3   
  20 C20            2.7645     5.3359    -0.8427 C.2     
  21 C21            4.7165     6.8704    -1.1686 C.3     
  22 F22           -1.1567    -0.6986     0.0098 F       
  23 C23            2.3175    -2.3377    -2.2449 C.2     
  24 C24            0.9659    -4.1842    -1.4738 C.2     
  25 C25            2.1617    -4.6486    -2.2756 C.3     
  26 N26            2.9031    -3.4582    -2.6884 N.am    
  27 O27            0.1128    -4.8667    -0.9593 O.2     
  28 C28            3.0528    -5.5412    -1.4095 C.3     
  29 C29            1.6913    -5.4214    -3.5094 C.3     
  30 O30            2.7274    -1.2142    -2.4470 O.2     
  31 H31           -0.0957     5.2404     0.0317 H       
  32 H32            3.3319    -0.5112    -0.0323 H       
  33 H33            3.3614     1.9266    -0.0194 H       
  34 H34            2.1496    -2.5259     0.4027 H       
  35 H35            0.3781    -2.5447     0.5750 H       
  36 H36            0.1999    -2.2293    -1.9314 H       
  37 H37           -3.6179     2.3867     0.0496 H       
  38 H38           -4.5197     3.8042     0.0665 H       
  39 H39            3.6325     3.3793     1.6449 H       
  40 H40            2.1327     5.7311    -1.6244 H       
  41 H41            5.3035     6.4773    -1.9987 H       
  42 H42            4.0016     7.6027    -1.5439 H       
  43 H43            5.3806     7.3474    -0.4478 H       
  44 H44            3.7164    -3.4772    -3.2168 H       
  45 H45            2.4836    -6.4091    -1.0765 H       
  46 H46            3.9120    -5.8722    -1.9928 H       
  47 H47            3.3976    -4.9782    -0.5422 H       
  48 H48            1.0717    -4.7737    -4.1295 H       
  49 H49            2.5573    -5.7530    -4.0823 H       
  50 H50            1.1099    -6.2883    -3.1953 H       
@<TRIPOS>BOND
   1    1    7 ar
   2    1    2 ar
   3    1    6 ar
   4    2    3 ar
   5    2   10 ar
   6    3    4 ar
   7    3   12 1
   8    4    5 ar
   9    4   31 1
  10    5    6 ar
  11    5   14 1
  12    7    8 ar
  13    7   22 1
  14    8   11 1
  15    8    9 ar
  16    9   10 ar
  17    9   32 1
  18   10   33 1
  19   11   13 1
  20   11   34 1
  21   11   35 1
  22   12   17 1
  23   12   20 2
  24   13   24 1
  25   13   23 1
  26   13   36 1
  27   14   15 am
  28   14   16 2
  29   15   37 1
  30   15   38 1
  31   17   18 2
  32   17   39 1
  33   18   19 1
  34   19   20 1
  35   19   21 1
  36   20   40 1
  37   21   41 1
  38   21   42 1
  39   21   43 1
  40   23   30 2
  41   23   26 am
  42   24   25 1
  43   24   27 2
  44   25   26 1
  45   25   28 1
  46   25   29 1
  47   26   44 1
  48   28   45 1
  49   28   46 1
  50   28   47 1
  51   29   48 1
  52   29   49 1
  53   29   50 1

#	End of record

