#	Name: ASD07270004
#	Creating user name:	WinNT
#	Creation time:	15. 06. 2019 21:09

#	Modifying user name:	WinNT
#	Modification time:	15. 06. 2019 21:09

#	Program:	/corina/corina34_cracker 3.40 0067  02.08.2006

@<TRIPOS>MOLECULE
ASD07270004
  34   36    0    0    0
SMALL
NO_CHARGES


@<TRIPOS>ATOM
   1 C1            -0.0180     1.4734     0.0101 C.2     
   2 C2             0.0021    -0.0041     0.0020 C.ar    
   3 C3             1.2188    -0.6888    -0.0133 C.ar    
   4 C4             1.2303    -2.0682    -0.0203 C.ar    
   5 C5             0.0396    -2.7731    -0.0127 C.ar    
   6 C6            -1.1697    -2.1008     0.0020 C.ar    
   7 C7            -1.1955    -0.7217     0.0154 C.ar    
   8 O8             1.0263     2.0954     0.0035 O.2     
   9 N9            -1.1942     2.1313     0.0193 N.am    
  10 N10           -1.2132     3.5322     0.0270 N.2     
  11 C11           -2.3494     4.1677     0.0358 C.2     
  12 C12           -2.3693     5.6319     0.0439 C.2     
  13 O13           -1.2016     6.2963     0.0420 O.3     
  14 C14           -1.1382     7.6443     0.0487 C.ar    
  15 C15           -2.3197     8.4014     0.0579 C.ar    
  16 C16           -3.6147     7.6915     0.0596 C.2     
  17 C17           -3.5829     6.2795     0.0475 C.2     
  18 O18           -4.6715     8.3013     0.0674 O.2     
  19 C19            0.0887     8.2970     0.0470 C.ar    
  20 C20            0.1354     9.6749     0.0543 C.ar    
  21 C21           -1.0332    10.4223     0.0634 C.ar    
  22 C22           -2.2596     9.7941     0.0657 C.ar    
  23 H23            2.1488    -0.1398    -0.0199 H       
  24 H24            2.1707    -2.5991    -0.0321 H       
  25 H25            0.0543    -3.8530    -0.0186 H       
  26 H26           -2.0953    -2.6572     0.0075 H       
  27 H27           -2.1401    -0.1982     0.0273 H       
  28 H28           -2.0276     1.6350     0.0206 H       
  29 H29           -3.2773     3.6151     0.0372 H       
  30 H30           -4.5027     5.7135     0.0479 H       
  31 H31            1.0050     7.7253     0.0403 H       
  32 H32            1.0913    10.1774     0.0534 H       
  33 H33           -0.9816    11.5010     0.0691 H       
  34 H34           -3.1686    10.3772     0.0721 H       
@<TRIPOS>BOND
   1    1    2 1
   2    1    8 2
   3    1    9 am
   4    2    3 ar
   5    2    7 ar
   6    3    4 ar
   7    3   23 1
   8    4    5 ar
   9    4   24 1
  10    5    6 ar
  11    5   25 1
  12    6    7 ar
  13    6   26 1
  14    7   27 1
  15    9   10 1
  16    9   28 1
  17   10   11 2
  18   11   12 1
  19   11   29 1
  20   12   13 1
  21   12   17 2
  22   13   14 1
  23   14   15 ar
  24   14   19 ar
  25   15   16 1
  26   15   22 ar
  27   16   17 1
  28   16   18 2
  29   17   30 1
  30   19   20 ar
  31   19   31 1
  32   20   21 ar
  33   20   32 1
  34   21   22 ar
  35   21   33 1
  36   22   34 1

#	End of record

