#	Name: ASD03730178
#	Creating user name:	WinNT
#	Creation time:	15. 06. 2019 20:44

#	Modifying user name:	WinNT
#	Modification time:	15. 06. 2019 20:44

#	Program:	/corina/corina34_cracker 3.40 0067  02.08.2006

@<TRIPOS>MOLECULE
ASD03730178
  46   50    0    0    0
SMALL
NO_CHARGES


@<TRIPOS>ATOM
   1 C1            -0.0187     1.5021     0.0185 C.2     
   2 C2             0.0011    -0.0045    -0.0114 C.3     
   3 O3             1.0236     2.1220     0.0366 O.2     
   4 N4            -1.1946     2.1607     0.0195 N.am    
   5 C5            -1.2153     3.5564     0.1329 C.ar    
   6 C6            -2.3326     4.1965     0.6587 C.ar    
   7 C7            -2.3489     5.5747     0.7689 C.ar    
   8 C8            -1.2559     6.3153     0.3567 C.ar    
   9 C9            -0.1445     5.6810    -0.1662 C.ar    
  10 C10           -0.1190     4.3036    -0.2739 C.ar    
  11 F11           -3.4003     3.4729     1.0609 F       
  12 O12            5.6394    -1.2392     1.4386 O.3     
  13 C13            4.5681    -0.3007     1.2250 C.3     
  14 C14            3.4547    -1.1894     0.6537 C.3     
  15 C15            3.8045    -2.5575     1.1746 C.ar    
  16 C16            5.1186    -2.4847     1.6285 C.ar    
  17 C17            5.7034    -3.6186     2.1839 C.ar    
  18 C18            4.9914    -4.7990     2.2725 C.ar    
  19 C19            3.6865    -4.8633     1.8084 C.ar    
  20 C20            3.0972    -3.7372     1.2593 C.ar    
  21 N21            1.3886    -0.4747    -0.0131 N.am    
  22 C22            2.0948    -0.7389     1.1042 C.2     
  23 C23            3.4131    -1.1421    -0.8448 C.ar    
  24 C24            4.3295    -1.4311    -1.8323 C.ar    
  25 C25            3.9825    -1.2839    -3.1645 C.ar    
  26 C26            2.7145    -0.8468    -3.5009 C.ar    
  27 C27            1.7937    -0.5566    -2.5157 C.ar    
  28 C28            2.1337    -0.7015    -1.1728 C.ar    
  29 O29            1.7078    -0.6338     2.2489 O.2     
  30 F30            5.5687    -5.8946     2.8126 F       
  31 F31            2.9930    -6.0196     1.8920 F       
  32 Br32           6.0624    -2.0285    -1.3678 Br      
  33 H33           -0.5129    -0.3921     0.8682 H       
  34 H34           -0.5030    -0.3567    -0.9114 H       
  35 H35           -2.0265     1.6680    -0.0584 H       
  36 H36           -3.2158     6.0733     1.1767 H       
  37 H37           -1.2709     7.3917     0.4433 H       
  38 H38            0.7070     6.2627    -0.4870 H       
  39 H39            0.7519     3.8092    -0.6783 H       
  40 H40            4.2569     0.1522     2.1664 H       
  41 H41            4.8609     0.4635     0.5049 H       
  42 H42            6.7195    -3.5756     2.5473 H       
  43 H43            2.0809    -3.7834     0.8967 H       
  44 H44            4.7005    -1.5096    -3.9390 H       
  45 H45            2.4438    -0.7319    -4.5401 H       
  46 H46            0.8056    -0.2150    -2.7866 H       
@<TRIPOS>BOND
   1    1    2 1
   2    1    3 2
   3    1    4 am
   4    2   21 1
   5    2   33 1
   6    2   34 1
   7    4    5 1
   8    4   35 1
   9    5    6 ar
  10    5   10 ar
  11    6    7 ar
  12    6   11 1
  13    7    8 ar
  14    7   36 1
  15    8    9 ar
  16    8   37 1
  17    9   10 ar
  18    9   38 1
  19   10   39 1
  20   12   13 1
  21   12   16 1
  22   13   14 1
  23   13   40 1
  24   13   41 1
  25   14   15 1
  26   14   22 1
  27   14   23 1
  28   15   16 ar
  29   15   20 ar
  30   16   17 ar
  31   17   18 ar
  32   17   42 1
  33   18   19 ar
  34   18   30 1
  35   19   20 ar
  36   19   31 1
  37   20   43 1
  38   21   22 am
  39   21   28 1
  40   22   29 2
  41   23   24 ar
  42   23   28 ar
  43   24   25 ar
  44   24   32 1
  45   25   26 ar
  46   25   44 1
  47   26   27 ar
  48   26   45 1
  49   27   28 ar
  50   27   46 1

#	End of record

