#	Name: ASD02030259
#	Creating user name:	WinNT
#	Creation time:	15. 06. 2019 20:14

#	Modifying user name:	WinNT
#	Modification time:	15. 06. 2019 20:14

#	Program:	/corina/corina34_cracker 3.40 0067  02.08.2006

@<TRIPOS>MOLECULE
ASD02030259
  52   55    0    0    0
SMALL
NO_CHARGES


@<TRIPOS>ATOM
   1 N1            -0.8070     2.8804    -1.3729 N.am    
   2 C2            -0.3600     1.5431    -1.7874 C.3     
   3 C3            -0.5231     0.5828    -0.6027 C.3     
   4 N4            -1.8779     0.7387    -0.0549 N.am    
   5 C5            -2.3248     2.0759     0.3596 C.3     
   6 C6            -2.1598     3.0353    -0.8199 C.3     
   7 C7             0.0112     3.9447    -1.4926 C.2     
   8 C8             1.4156     3.7540    -1.9130 C.2     
   9 N9             2.2087     4.6811    -2.4051 N.2     
  10 N10            2.1098     2.6027    -1.8542 N.2     
  11 C11            3.3096     2.8480    -2.3158 C.2     
  12 N12            3.3565     4.1523    -2.6564 N.pl3   
  13 C13            4.4660     4.8195    -3.1929 C.ar    
  14 O14           -0.4058     5.0616    -1.2548 O.2     
  15 C15           -2.6960    -0.3257     0.0648 C.2     
  16 C16           -2.2436    -1.6622    -0.3869 C.ar    
  17 O17           -3.8047    -0.1891     0.5431 O.2     
  18 C18            4.3828     6.1703    -3.5016 C.ar    
  19 C19            5.4791     6.8255    -4.0308 C.ar    
  20 C20            6.6579     6.1356    -4.2528 C.ar    
  21 C21            6.7426     4.7898    -3.9463 C.ar    
  22 C22            5.6527     4.1318    -3.4113 C.ar    
  23 Cl23           5.3767     8.5148    -4.4175 Cl      
  24 C24           -1.4731     2.5607     1.5345 C.3     
  25 N25           -0.9453    -1.9403    -0.4217 N.ar    
  26 C26           -0.5017    -3.1180    -0.8175 C.ar    
  27 C27           -1.3877    -4.1160    -1.2149 C.ar    
  28 C28           -2.7478    -3.8628    -1.1920 C.ar    
  29 C29           -3.1833    -2.6164    -0.7654 C.ar    
  30 O30            0.8332    -3.3594    -0.8379 O.3     
  31 C31            1.6912    -2.2962    -0.4192 C.3     
  32 H32           -0.9668     1.1977    -2.6244 H       
  33 H33            0.6880     1.5833    -2.0841 H       
  34 H34           -0.3813    -0.4434    -0.9414 H       
  35 H35            0.2120     0.8219     0.1659 H       
  36 H36           -3.3729     2.0357     0.6563 H       
  37 H37           -2.3019     4.0610    -0.4798 H       
  38 H38           -2.8935     2.7976    -1.5902 H       
  39 H39            4.1168     2.1360    -2.4048 H       
  40 H40            3.4625     6.7086    -3.3290 H       
  41 H41            7.5132     6.6490    -4.6666 H       
  42 H42            7.6637     4.2537    -4.1213 H       
  43 H43            5.7200     3.0808    -3.1719 H       
  44 H44           -0.4273     2.6065     1.2307 H       
  45 H45           -1.8064     3.5525     1.8400 H       
  46 H46           -1.5788     1.8686     2.3699 H       
  47 H47           -1.0171    -5.0776    -1.5380 H       
  48 H48           -3.4552    -4.6203    -1.4954 H       
  49 H49           -4.2381    -2.3867    -0.7356 H       
  50 H50            2.7298    -2.6206    -0.4835 H       
  51 H51            1.5400    -1.4314    -1.0653 H       
  52 H52            1.4583    -2.0254     0.6106 H       
@<TRIPOS>BOND
   1    1    2 1
   2    1    7 am
   3    1    6 1
   4    2    3 1
   5    2   32 1
   6    2   33 1
   7    3    4 1
   8    3   34 1
   9    3   35 1
  10    4    5 1
  11    4   15 am
  12    5    6 1
  13    5   24 1
  14    5   36 1
  15    6   37 1
  16    6   38 1
  17    7    8 1
  18    7   14 2
  19    8    9 2
  20    8   10 1
  21    9   12 1
  22   10   11 2
  23   11   12 1
  24   11   39 1
  25   12   13 1
  26   13   18 ar
  27   13   22 ar
  28   15   16 1
  29   15   17 2
  30   16   25 ar
  31   16   29 ar
  32   18   19 ar
  33   18   40 1
  34   19   20 ar
  35   19   23 1
  36   20   21 ar
  37   20   41 1
  38   21   22 ar
  39   21   42 1
  40   22   43 1
  41   24   44 1
  42   24   45 1
  43   24   46 1
  44   25   26 ar
  45   26   27 ar
  46   26   30 1
  47   27   28 ar
  48   27   47 1
  49   28   29 ar
  50   28   48 1
  51   29   49 1
  52   30   31 1
  53   31   50 1
  54   31   51 1
  55   31   52 1

#	End of record

