#	Name: ASD01914087
#	Creating user name:	WinNT
#	Creation time:	15. 06. 2019 20:02

#	Modifying user name:	WinNT
#	Modification time:	15. 06. 2019 20:02

#	Program:	/corina/corina34_cracker 3.40 0067  02.08.2006

@<TRIPOS>MOLECULE
ASD01914087
  46   49    0    0    0
SMALL
NO_CHARGES


@<TRIPOS>ATOM
   1 C1            -0.0167     1.3783     0.0096 C.ar    
   2 C2             0.0021    -0.0041     0.0020 C.ar    
   3 C3             2.3997     0.0285    -0.0208 C.ar    
   4 C4             2.3807     1.4151    -0.0136 C.ar    
   5 O5             3.5853    -0.6355    -0.0366 O.3     
   6 C6             1.2066    -0.6801    -0.0132 C.ar    
   7 C7             1.1719     2.0887     0.0021 C.ar    
   8 F8             1.1515     3.4395     0.0091 F       
   9 C9             3.5291    -2.0634    -0.0433 C.3     
  10 C10            4.9290    -2.6212    -0.0608 C.ar    
  11 N11            5.1065    -3.9284    -0.0693 N.ar    
  12 C12            6.3081    -4.4671    -0.0851 C.ar    
  13 C13            7.4469    -3.6610    -0.0930 C.ar    
  14 C14            7.2907    -2.2696    -0.0843 C.ar    
  15 C15            6.0069    -1.7539    -0.0735 C.ar    
  16 C16            8.7958    -4.2659    -0.1098 C.2     
  17 O17            9.7811    -3.5540    -0.1165 O.2     
  18 N18            8.9331    -5.6066    -0.1175 N.am    
  19 C19           10.2698    -6.2060    -0.1341 C.3     
  20 C20           10.7832    -6.3379    -1.5862 C.3     
  21 C21           10.9909    -7.8693    -1.7933 C.3     
  22 C22           12.2242    -8.2195    -0.9058 C.3     
  23 C23           11.7107    -8.0877     0.5463 C.3     
  24 C24           10.2156    -7.6702     0.3993 C.3     
  25 C25            9.8263    -8.4420    -0.9107 C.3     
  26 H26           -0.9596     1.9048     0.0170 H       
  27 H27           -0.9262    -0.5561     0.0083 H       
  28 H28            3.3080     1.9685    -0.0198 H       
  29 H29            1.2198    -1.7600    -0.0187 H       
  30 H30            3.0107    -2.4108     0.8505 H       
  31 H31            2.9920    -2.4018    -0.9294 H       
  32 H32            6.4130    -5.5419    -0.0916 H       
  33 H33            8.1502    -1.6156    -0.0901 H       
  34 H34            5.8479    -0.6857    -0.0666 H       
  35 H35            8.1469    -6.1747    -0.1121 H       
  36 H36           10.9608    -5.6084     0.4604 H       
  37 H37           10.0411    -5.9567    -2.2877 H       
  38 H38           11.7277    -5.8068    -1.7050 H       
  39 H39           11.0371    -8.2082    -2.8283 H       
  40 H40           12.5552    -9.2396    -1.1006 H       
  41 H41           13.0355    -7.5146    -1.0874 H       
  42 H42           11.7893    -9.0429     1.0653 H       
  43 H43           12.2696    -7.3179     1.0785 H       
  44 H44            9.5865    -7.8357     1.2739 H       
  45 H45            8.8463    -8.1450    -1.2842 H       
  46 H46            9.9010    -9.5223    -0.7862 H       
@<TRIPOS>BOND
   1    1    2 ar
   2    1    7 ar
   3    1   26 1
   4    2    6 ar
   5    2   27 1
   6    3    4 ar
   7    3    5 1
   8    3    6 ar
   9    4    7 ar
  10    4   28 1
  11    5    9 1
  12    6   29 1
  13    7    8 1
  14    9   10 1
  15    9   30 1
  16    9   31 1
  17   10   11 ar
  18   10   15 ar
  19   11   12 ar
  20   12   13 ar
  21   12   32 1
  22   13   14 ar
  23   13   16 1
  24   14   15 ar
  25   14   33 1
  26   15   34 1
  27   16   17 2
  28   16   18 am
  29   18   19 1
  30   18   35 1
  31   19   20 1
  32   19   24 1
  33   19   36 1
  34   20   21 1
  35   20   37 1
  36   20   38 1
  37   21   22 1
  38   21   25 1
  39   21   39 1
  40   22   23 1
  41   22   40 1
  42   22   41 1
  43   23   24 1
  44   23   42 1
  45   23   43 1
  46   24   25 1
  47   24   44 1
  48   25   45 1
  49   25   46 1

#	End of record

