#	Name: ASD01883105
#	Creating user name:	WinNT
#	Creation time:	15. 06. 2019 19:45

#	Modifying user name:	WinNT
#	Modification time:	15. 06. 2019 19:45

#	Program:	/corina/corina34_cracker 3.40 0067  02.08.2006

@<TRIPOS>MOLECULE
ASD01883105
  32   33    0    0    0
SMALL
NO_CHARGES


@<TRIPOS>ATOM
   1 N1            -0.0162     1.3415     0.0094 N.am    
   2 C2             0.0021    -0.0041     0.0020 C.2     
   3 C3            -1.2144    -0.7274     0.0102 C.2     
   4 C4            -2.4281    -0.0089     0.0261 C.2     
   5 C5            -2.3786     1.4027     0.0332 C.2     
   6 C6            -1.1855     2.0348     0.0299 C.2     
   7 O7             1.0660    -0.5997    -0.0122 O.2     
   8 C8            -1.2131    -2.1594     0.0021 C.1     
   9 N9            -1.2121    -3.2954    -0.0044 N.1     
  10 C10            1.2518     2.0753     0.0013 C.3     
  11 C11            1.6794     2.3385    -1.4440 C.3     
  12 C12            3.0036     3.1048    -1.4525 C.3     
  13 C13            3.4313     3.3680    -2.8978 C.3     
  14 C14           -3.7164    -0.7137     0.0347 C.2     
  15 C15           -4.6275    -0.6873     1.0523 C.2     
  16 C16           -5.7512    -1.4391     0.7958 C.2     
  17 C17           -5.7604    -2.0590    -0.3892 C.2     
  18 S18           -4.3366    -1.7208    -1.2664 S.3     
  19 H19           -3.2940     1.9757     0.0451 H       
  20 H20           -1.1596     3.1145     0.0354 H       
  21 H21            1.1254     3.0248     0.5214 H       
  22 H22            2.0169     1.4842     0.5046 H       
  23 H23            1.8058     1.3890    -1.9642 H       
  24 H24            0.9143     2.9295    -1.9474 H       
  25 H25            2.8773     4.0543    -0.9324 H       
  26 H26            3.7687     2.5138    -0.9491 H       
  27 H27            4.3746     3.9140    -2.9039 H       
  28 H28            3.5576     2.4185    -3.4180 H       
  29 H29            2.6662     3.9591    -3.4012 H       
  30 H30           -4.4803    -0.1322     1.9670 H       
  31 H31           -6.5658    -1.5226     1.4999 H       
  32 H32           -6.5641    -2.6864    -0.7454 H       
@<TRIPOS>BOND
   1    1    2 am
   2    1   10 1
   3    1    6 1
   4    2    3 1
   5    2    7 2
   6    3    4 2
   7    3    8 1
   8    4    5 1
   9    4   14 1
  10    5    6 2
  11    5   19 1
  12    6   20 1
  13    8    9 3
  14   10   11 1
  15   10   21 1
  16   10   22 1
  17   11   12 1
  18   11   23 1
  19   11   24 1
  20   12   13 1
  21   12   25 1
  22   12   26 1
  23   13   27 1
  24   13   28 1
  25   13   29 1
  26   14   15 2
  27   14   18 1
  28   15   16 1
  29   15   30 1
  30   16   17 2
  31   16   31 1
  32   17   18 1
  33   17   32 1

#	End of record

