#	Name: ASD01817043
#	Creating user name:	WinNT
#	Creation time:	15. 06. 2019 19:36

#	Modifying user name:	WinNT
#	Modification time:	15. 06. 2019 19:36

#	Program:	/corina/corina34_cracker 3.40 0067  02.08.2006

@<TRIPOS>MOLECULE
ASD01817043
  48   49    0    0    0
SMALL
NO_CHARGES


@<TRIPOS>ATOM
   1 C1            -0.0187     1.5262     0.0104 C.3     
   2 C2             0.0021    -0.0041     0.0020 C.3     
   3 C3            -1.4365    -0.5301    -0.0220 C.3     
   4 N4            -2.1737     0.0572     1.1051 N.am    
   5 C5            -2.1821     1.5183     1.2591 C.3     
   6 C6            -0.7352     2.0214     1.2688 C.3     
   7 C7            -2.8301    -0.7295     1.9807 C.2     
   8 O8            -2.8159    -1.9366     1.8422 O.2     
   9 N9             1.3596     2.0344     0.0000 N.3     
  10 C10            1.4180     3.3858    -0.5729 C.3     
  11 C11            2.8660     3.8801    -0.5668 C.3     
  12 N12            2.9243     5.2278    -1.1382 N.am    
  13 C13            4.1063     5.8681    -1.2352 C.2     
  14 C14            4.1651     7.2282    -1.8118 C.ar    
  15 O15            5.1239     5.3273    -0.8485 O.2     
  16 C16            5.3876     7.8940    -1.9136 C.ar    
  17 C17            5.4356     9.1631    -2.4526 C.ar    
  18 C18            4.2753     9.7758    -2.8917 C.ar    
  19 C19            3.0602     9.1214    -2.7932 C.ar    
  20 C20            2.9993     7.8497    -2.2619 C.ar    
  21 O21           -3.5016    -0.1778     3.0090 O.3     
  22 C22           -4.8869    -0.2815     5.0091 C.3     
  23 C23           -4.1854    -1.0856     3.9127 C.3     
  24 H24           -0.5455     1.8871    -0.8729 H       
  25 H25            0.5329    -0.3558    -0.8826 H       
  26 H26            0.5069    -0.3660     0.8977 H       
  27 H27           -1.9142    -0.2450    -0.9594 H       
  28 H28           -1.4300    -1.6161     0.0717 H       
  29 H29           -2.7206     1.9704     0.4262 H       
  30 H30           -2.6676     1.7839     2.1982 H       
  31 H31           -0.2234     1.6404     2.1526 H       
  32 H32           -0.7291     3.1113     1.2858 H       
  33 H33            1.7584     2.0169     0.9267 H       
  34 H34            1.0464     3.3625    -1.5973 H       
  35 H35            0.8016     4.0596     0.0220 H       
  36 H36            3.2377     3.9034     0.4576 H       
  37 H37            3.4825     3.2062    -1.1618 H       
  38 H38            2.1122     5.6594    -1.4467 H       
  39 H39            6.2939     7.4170    -1.5709 H       
  40 H40            6.3808     9.6795    -2.5317 H       
  41 H41            4.3183    10.7693    -3.3129 H       
  42 H42            2.1582     9.6054    -3.1375 H       
  43 H43            2.0502     7.3399    -2.1859 H       
  44 H44           -4.1485     0.2964     5.5648 H       
  45 H45           -5.6119     0.3949     4.5563 H       
  46 H46           -5.4003    -0.9631     5.6875 H       
  47 H47           -4.9239    -1.6635     3.3570 H       
  48 H48           -3.4605    -1.7620     4.3655 H       
@<TRIPOS>BOND
   1    1    2 1
   2    1    9 1
   3    1    6 1
   4    1   24 1
   5    2    3 1
   6    2   25 1
   7    2   26 1
   8    3    4 1
   9    3   27 1
  10    3   28 1
  11    4    5 1
  12    4    7 am
  13    5    6 1
  14    5   29 1
  15    5   30 1
  16    6   31 1
  17    6   32 1
  18    7    8 2
  19    7   21 1
  20    9   10 1
  21    9   33 1
  22   10   11 1
  23   10   34 1
  24   10   35 1
  25   11   12 1
  26   11   36 1
  27   11   37 1
  28   12   13 am
  29   12   38 1
  30   13   14 1
  31   13   15 2
  32   14   16 ar
  33   14   20 ar
  34   16   17 ar
  35   16   39 1
  36   17   18 ar
  37   17   40 1
  38   18   19 ar
  39   18   41 1
  40   19   20 ar
  41   19   42 1
  42   20   43 1
  43   21   23 1
  44   22   23 1
  45   22   44 1
  46   22   45 1
  47   22   46 1
  48   23   47 1
  49   23   48 1

#	End of record

