#	Name: ASD07930931
#	Creating user name:	WinNT
#	Creation time:	15. 06. 2019 21:13

#	Modifying user name:	WinNT
#	Modification time:	15. 06. 2019 21:13

#	Program:	/corina/corina34_cracker 3.40 0067  02.08.2006

@<TRIPOS>MOLECULE
ASD07930931
  51   56    0    0    0
SMALL
NO_CHARGES


@<TRIPOS>ATOM
   1 N1            -0.0176     1.3374     0.1592 N.pl3   
   2 C2             0.0784    -0.0045    -0.0351 C.2     
   3 C3             1.3136    -0.6306    -0.1591 C.2     
   4 C4             2.5425     0.1844    -0.0778 C.2     
   5 C5             2.3863     1.6372     0.1336 C.ar    
   6 C6             3.4930     2.4760     0.2223 C.ar    
   7 C7             3.3122     3.8292     0.4206 C.ar    
   8 C8             2.0339     4.3525     0.5312 C.ar    
   9 C9             0.9291     3.5313     0.4454 C.ar    
  10 C10            1.0902     2.1643     0.2457 C.ar    
  11 N11            3.0944    -1.9352    -0.3953 N.am    
  12 N12            3.5538    -0.6257    -0.2217 N.2     
  13 C13            1.7459    -1.9590    -0.3606 C.2     
  14 O14            1.0339    -2.9437    -0.4811 O.2     
  15 C15           -1.3498     1.9354     0.2762 C.3     
  16 C16           -1.7947     1.8934     1.7154 C.ar    
  17 C17           -1.3850     2.8801     2.5933 C.ar    
  18 C18           -1.7911     2.8443     3.9130 C.ar    
  19 C19           -2.6119     1.8166     4.3576 C.ar    
  20 C20           -3.0220     0.8277     3.4737 C.ar    
  21 C21           -2.6165     0.8715     2.1541 C.ar    
  22 N22           -3.0254     1.7774     5.6965 N.pl3   
  23 N23           -2.6886     2.7048     6.6909 N.2     
  24 C24           -3.2617     2.3337     7.8075 C.2     
  25 C25           -3.9813     1.1593     7.5612 C.2     
  26 C26           -3.8247     0.8407     6.2554 C.2     
  27 C27           -1.1513    -0.8118    -0.1153 C.ar    
  28 C28           -1.4399    -1.7559     0.8782 C.ar    
  29 C29           -2.5961    -2.5087     0.7942 C.ar    
  30 C30           -3.4647    -2.3310    -0.2670 C.ar    
  31 C31           -3.1847    -1.3997    -1.2525 C.ar    
  32 C32           -2.0394    -0.6359    -1.1805 C.ar    
  33 F33           -0.5911    -1.9304     1.9146 F       
  34 H34            4.4897     2.0691     0.1365 H       
  35 H35            4.1694     4.4825     0.4901 H       
  36 H36            1.9015     5.4131     0.6863 H       
  37 H37           -0.0624     3.9502     0.5338 H       
  38 H38            3.6617    -2.7117    -0.5224 H       
  39 H39           -1.3144     2.9706    -0.0631 H       
  40 H40           -2.0547     1.3755    -0.3385 H       
  41 H41           -0.7464     3.6792     2.2469 H       
  42 H42           -1.4701     3.6148     4.5984 H       
  43 H43           -3.6605     0.0270     3.8167 H       
  44 H44           -2.9383     0.1046     1.4651 H       
  45 H45           -3.1908     2.8456     8.7558 H       
  46 H46           -4.5627     0.6069     8.2846 H       
  47 H47           -4.2583    -0.0100     5.7508 H       
  48 H48           -2.8214    -3.2375     1.5587 H       
  49 H49           -4.3664    -2.9223    -0.3277 H       
  50 H50           -3.8685    -1.2677    -2.0780 H       
  51 H51           -1.8261     0.0933    -1.9481 H       
@<TRIPOS>BOND
   1    1    2 1
   2    1   10 1
   3    1   15 1
   4    2    3 2
   5    2   27 1
   6    3    4 1
   7    3   13 1
   8    4    5 1
   9    4   12 2
  10    5    6 ar
  11    5   10 ar
  12    6    7 ar
  13    6   34 1
  14    7    8 ar
  15    7   35 1
  16    8    9 ar
  17    8   36 1
  18    9   10 ar
  19    9   37 1
  20   11   12 1
  21   11   13 am
  22   11   38 1
  23   13   14 2
  24   15   16 1
  25   15   39 1
  26   15   40 1
  27   16   17 ar
  28   16   21 ar
  29   17   18 ar
  30   17   41 1
  31   18   19 ar
  32   18   42 1
  33   19   20 ar
  34   19   22 1
  35   20   21 ar
  36   20   43 1
  37   21   44 1
  38   22   23 1
  39   22   26 1
  40   23   24 2
  41   24   25 1
  42   24   45 1
  43   25   26 2
  44   25   46 1
  45   26   47 1
  46   27   28 ar
  47   27   32 ar
  48   28   29 ar
  49   28   33 1
  50   29   30 ar
  51   29   48 1
  52   30   31 ar
  53   30   49 1
  54   31   32 ar
  55   31   50 1
  56   32   51 1

#	End of record

