#	Name: ASD08340001
#	Creating user name:	WinNT
#	Creation time:	15. 06. 2019 21:19

#	Modifying user name:	WinNT
#	Modification time:	15. 06. 2019 21:19

#	Program:	/corina/corina34_cracker 3.40 0067  02.08.2006

@<TRIPOS>MOLECULE
ASD08340001
 112  111    0    0    0
SMALL
NO_CHARGES


@<TRIPOS>ATOM
   1 C1             2.2025     2.6801    -0.1768 C.2     
   2 O2             2.5629     1.3962    -0.3298 O.3     
   3 C3             3.9683     1.0798    -0.1481 C.3     
   4 C4             4.1052    -0.3502     0.3783 C.3     
   5 C5             4.6960     1.2018    -1.4884 C.3     
   6 O6             4.1995     0.2121    -2.3918 O.3     
   7 O7             3.6282    -1.2836    -0.6265 O.3     
   8 C8             3.6805    -2.5892    -0.3192 C.2     
   9 C9             3.2028    -3.6168    -1.3125 C.3     
  10 O10            4.1106    -2.9405     0.7539 O.2     
  11 C11            3.3699    -5.0168    -0.7184 C.3     
  12 C12            2.8849    -6.0601    -1.7269 C.3     
  13 C13            3.0521    -7.4601    -1.1327 C.3     
  14 C14            2.5671    -8.5034    -2.1412 C.3     
  15 C15            2.7343    -9.9034    -1.5471 C.3     
  16 C16            2.2492   -10.9467    -2.5556 C.3     
  17 C17            2.4164   -12.3467    -1.9614 C.3     
  18 C18            1.9314   -13.3900    -2.9699 C.3     
  19 C19            2.0986   -14.7900    -2.3758 C.3     
  20 C20            1.6136   -15.8333    -3.3843 C.3     
  21 C21            1.7807   -17.2333    -2.7901 C.3     
  22 C22            1.2957   -18.2766    -3.7987 C.3     
  23 C23            1.4629   -19.6766    -3.2045 C.3     
  24 C24            0.9779   -20.7199    -4.2130 C.3     
  25 O25            3.0339     3.5120     0.0999 O.2     
  26 C26            0.7620     3.0849    -0.3562 C.3     
  27 C27            0.6234     4.5914    -0.1278 C.3     
  28 C28           -0.8391     5.0024    -0.3099 C.3     
  29 C29           -0.9777     6.5088    -0.0816 C.3     
  30 C30           -2.4402     6.9198    -0.2637 C.3     
  31 C31           -2.5788     8.4263    -0.0354 C.3     
  32 C32           -4.0413     8.8373    -0.2175 C.3     
  33 C33           -4.1779    10.3212     0.0074 C.2     
  34 C34           -4.7572    11.0703    -0.8977 C.2     
  35 C35           -5.4345    10.4320    -2.0830 C.3     
  36 C36           -6.8667    10.9582    -2.1965 C.3     
  37 C37           -7.5543    10.3102    -3.3998 C.3     
  38 C38           -8.9865    10.8365    -3.5133 C.3     
  39 C39           -9.6741    10.1884    -4.7166 C.3     
  40 C40          -11.1063    10.7147    -4.8301 C.3     
  41 C41          -11.7939    10.0667    -6.0334 C.3     
  42 C42          -13.2261    10.5929    -6.1469 C.3     
  43 H43            4.4073     1.7742     0.5683 H       
  44 H44            5.1524    -0.5575     0.5988 H       
  45 H45            3.5137    -0.4611     1.2871 H       
  46 H46            4.5243     2.1938    -1.9061 H       
  47 H47            5.7649     1.0515    -1.3365 H       
  48 H48            4.6170     0.2307    -3.2638 H       
  49 H49            2.1511    -3.4416    -1.5393 H       
  50 H50            3.7898    -3.5380    -2.2276 H       
  51 H51            4.4216    -5.1921    -0.4916 H       
  52 H52            2.7829    -5.0956     0.1967 H       
  53 H53            1.8333    -5.8849    -1.9536 H       
  54 H54            3.4719    -5.9813    -2.6419 H       
  55 H55            4.1038    -7.6353    -0.9060 H       
  56 H56            2.4651    -7.5389    -0.2177 H       
  57 H57            1.5154    -8.3282    -2.3680 H       
  58 H58            3.1541    -8.4246    -3.0563 H       
  59 H59            3.7859   -10.0786    -1.3203 H       
  60 H60            2.1473    -9.9822    -0.6320 H       
  61 H61            1.1976   -10.7714    -2.7823 H       
  62 H62            2.8363   -10.8679    -3.4706 H       
  63 H63            3.4681   -12.5219    -1.7347 H       
  64 H64            1.8294   -12.4255    -1.0464 H       
  65 H65            0.8798   -13.2147    -3.1967 H       
  66 H66            2.5184   -13.3112    -3.8850 H       
  67 H67            3.1502   -14.9652    -2.1490 H       
  68 H68            1.5116   -14.8688    -1.4607 H       
  69 H69            0.5619   -15.6580    -3.6111 H       
  70 H70            2.2006   -15.7545    -4.2993 H       
  71 H71            2.8324   -17.4085    -2.5634 H       
  72 H72            1.1937   -17.3121    -1.8751 H       
  73 H73            0.2441   -18.1013    -4.0254 H       
  74 H74            1.8827   -18.1978    -4.7137 H       
  75 H75            2.5146   -19.8518    -2.9777 H       
  76 H76            0.8759   -19.7554    -2.2894 H       
  77 H77            1.5649   -20.6411    -5.1281 H       
  78 H78            1.0970   -21.7172    -3.7897 H       
  79 H79           -0.0738   -20.5446    -4.4398 H       
  80 H80            0.4389     2.8395    -1.3678 H       
  81 H81            0.1420     2.5498     0.3631 H       
  82 H82            0.9465     4.8368     0.8839 H       
  83 H83            1.2434     5.1265    -0.8471 H       
  84 H84           -1.1622     4.7570    -1.3216 H       
  85 H85           -1.4591     4.4673     0.4093 H       
  86 H86           -0.6547     6.7542     0.9301 H       
  87 H87           -0.3577     7.0439    -0.8009 H       
  88 H88           -2.7633     6.6744    -1.2754 H       
  89 H89           -3.0603     6.3847     0.4555 H       
  90 H90           -2.2558     8.6717     0.9763 H       
  91 H91           -1.9588     8.9614    -0.7546 H       
  92 H92           -4.3644     8.5919    -1.2292 H       
  93 H93           -4.6614     8.3022     0.5018 H       
  94 H94           -3.7981    10.7670     0.9148 H       
  95 H95           -4.7494    12.1453    -0.7946 H       
  96 H96           -4.8843    10.6771    -2.9914 H       
  97 H97           -5.4544     9.3502    -1.9510 H       
  98 H98           -7.4169    10.7131    -1.2880 H       
  99 H99           -6.8468    12.0400    -2.3284 H       
 100 H100          -7.0041    10.5554    -4.3082 H       
 101 H101          -7.5742     9.2284    -3.2678 H       
 102 H102          -9.5367    10.5913    -2.6048 H       
 103 H103          -8.9666    11.9183    -3.6452 H       
 104 H104          -9.1239    10.4336    -5.6251 H       
 105 H105          -9.6940     9.1066    -4.5847 H       
 106 H106         -11.6565    10.4695    -3.9217 H       
 107 H107         -11.0864    11.7965    -4.9621 H       
 108 H108         -11.2437    10.3118    -6.9419 H       
 109 H109         -11.8138     8.9849    -5.9015 H       
 110 H110         -13.7763    10.3478    -5.2385 H       
 111 H111         -13.2062    11.6747    -6.2789 H       
 112 H112         -13.7160    10.1313    -7.0042 H       
@<TRIPOS>BOND
   1    1    2 1
   2    1   25 2
   3    1   26 1
   4    2    3 1
   5    3    4 1
   6    3    5 1
   7    3   43 1
   8    4    7 1
   9    4   44 1
  10    4   45 1
  11    5    6 1
  12    5   46 1
  13    5   47 1
  14    6   48 1
  15    7    8 1
  16    8    9 1
  17    8   10 2
  18    9   11 1
  19    9   49 1
  20    9   50 1
  21   11   12 1
  22   11   51 1
  23   11   52 1
  24   12   13 1
  25   12   53 1
  26   12   54 1
  27   13   14 1
  28   13   55 1
  29   13   56 1
  30   14   15 1
  31   14   57 1
  32   14   58 1
  33   15   16 1
  34   15   59 1
  35   15   60 1
  36   16   17 1
  37   16   61 1
  38   16   62 1
  39   17   18 1
  40   17   63 1
  41   17   64 1
  42   18   19 1
  43   18   65 1
  44   18   66 1
  45   19   20 1
  46   19   67 1
  47   19   68 1
  48   20   21 1
  49   20   69 1
  50   20   70 1
  51   21   22 1
  52   21   71 1
  53   21   72 1
  54   22   23 1
  55   22   73 1
  56   22   74 1
  57   23   24 1
  58   23   75 1
  59   23   76 1
  60   24   77 1
  61   24   78 1
  62   24   79 1
  63   26   27 1
  64   26   80 1
  65   26   81 1
  66   27   28 1
  67   27   82 1
  68   27   83 1
  69   28   29 1
  70   28   84 1
  71   28   85 1
  72   29   30 1
  73   29   86 1
  74   29   87 1
  75   30   31 1
  76   30   88 1
  77   30   89 1
  78   31   32 1
  79   31   90 1
  80   31   91 1
  81   32   33 1
  82   32   92 1
  83   32   93 1
  84   33   34 2
  85   33   94 1
  86   34   35 1
  87   34   95 1
  88   35   36 1
  89   35   96 1
  90   35   97 1
  91   36   37 1
  92   36   98 1
  93   36   99 1
  94   37   38 1
  95   37  100 1
  96   37  101 1
  97   38   39 1
  98   38  102 1
  99   38  103 1
 100   39   40 1
 101   39  104 1
 102   39  105 1
 103   40   41 1
 104   40  106 1
 105   40  107 1
 106   41   42 1
 107   41  108 1
 108   41  109 1
 109   42  110 1
 110   42  111 1
 111   42  112 1

#	End of record

