#	Name: ASD00061050
#	Creating user name:	WinNT
#	Creation time:	15. 06. 2019 18:29

#	Modifying user name:	WinNT
#	Modification time:	15. 06. 2019 18:29

#	Program:	/corina/corina34_cracker 3.40 0067  02.08.2006

@<TRIPOS>MOLECULE
ASD00061050
  36   37    0    0    0
SMALL
NO_CHARGES


@<TRIPOS>ATOM
   1 C1            -0.0184     1.5028     0.0103 C.ar    
   2 C2             0.0021    -0.0041     0.0020 C.3     
   3 C3            -0.7002    -0.5305     1.2552 C.3     
   4 C4            -0.5729    -2.0312     1.3094 C.2     
   5 O5             0.0209    -2.6214     0.4323 O.2     
   6 C6            -1.1692    -2.7802     2.4266 C.ar    
   7 C7            -1.0531    -4.1731     2.4804 C.ar    
   8 C8            -1.6145    -4.8679     3.5303 C.ar    
   9 C9            -2.2920    -4.1904     4.5301 C.ar    
  10 C10           -2.4114    -2.8115     4.4836 C.ar    
  11 C11           -1.8500    -2.1023     3.4433 C.ar    
  12 C12           -0.7241    -0.5171    -1.2431 C.3     
  13 C13            1.1695     2.2099     0.0028 C.ar    
  14 C14            1.1514     3.5919     0.0104 C.ar    
  15 C15           -0.0559     4.2676     0.0255 C.ar    
  16 C16           -1.2443     3.5593     0.0331 C.ar    
  17 C17           -1.2250     2.1774     0.0197 C.ar    
  18 I18           -3.1411    -5.2569     6.1209 I       
  19 Cl19          -0.0794     6.0034     0.0356 Cl      
  20 C20            0.0370    -0.1013    -2.4756 C.2     
  21 O21            1.0557     0.5396    -2.3690 O.2     
  22 O22           -0.4168    -0.4430    -3.6917 O.3     
  23 H23            1.0345    -0.3534    -0.0097 H       
  24 H24           -0.2382    -0.0945     2.1409 H       
  25 H25           -1.7547    -0.2563     1.2231 H       
  26 H26           -0.5253    -4.7028     1.7011 H       
  27 H27           -1.5260    -5.9435     3.5730 H       
  28 H28           -2.9416    -2.2900     5.2668 H       
  29 H29           -1.9395    -1.0265     3.4110 H       
  30 H30           -0.7871    -1.6046    -1.2047 H       
  31 H31           -1.7288    -0.0959    -1.2772 H       
  32 H32            2.1118     1.6824    -0.0087 H       
  33 H33            2.0794     4.1443     0.0048 H       
  34 H34           -2.1870     4.0862     0.0449 H       
  35 H35           -2.1526     1.6243     0.0256 H       
  36 H36            0.1054    -0.1536    -4.4524 H       
@<TRIPOS>BOND
   1    1    2 1
   2    1   13 ar
   3    1   17 ar
   4    2    3 1
   5    2   12 1
   6    2   23 1
   7    3    4 1
   8    3   24 1
   9    3   25 1
  10    4    5 2
  11    4    6 1
  12    6    7 ar
  13    6   11 ar
  14    7    8 ar
  15    7   26 1
  16    8    9 ar
  17    8   27 1
  18    9   10 ar
  19    9   18 1
  20   10   11 ar
  21   10   28 1
  22   11   29 1
  23   12   20 1
  24   12   30 1
  25   12   31 1
  26   13   14 ar
  27   13   32 1
  28   14   15 ar
  29   14   33 1
  30   15   16 ar
  31   15   19 1
  32   16   17 ar
  33   16   34 1
  34   17   35 1
  35   20   21 2
  36   20   22 1
  37   22   36 1

#	End of record

