#	Name: ASD03930004
#	Creating user name:	WinNT
#	Creation time:	15. 06. 2019 20:47

#	Modifying user name:	WinNT
#	Modification time:	15. 06. 2019 20:47

#	Program:	/corina/corina34_cracker 3.40 0067  02.08.2006

@<TRIPOS>MOLECULE
ASD03930004
  34   36    0    0    0
SMALL
NO_CHARGES


@<TRIPOS>ATOM
   1 C1            -0.1672     1.5021    -0.5525 C.2     
   2 C2            -0.1426    -0.0047    -0.5490 C.3     
   3 O3             0.7353     2.1222    -1.0746 O.2     
   4 N4            -1.1946     2.1607     0.0195 N.am    
   5 S5            -3.5451     8.1803     0.1882 S.o2    
   6 C6            -1.8492     8.6337    -0.2991 C.3     
   7 N7            -0.9407     7.7388     0.4330 N.pl3   
   8 C8            -1.0762     6.3532     0.3240 C.ar    
   9 C9            -2.3183     5.7172     0.1295 C.ar    
  10 C10           -3.5317     6.4202     0.0359 C.ar    
  11 C11            0.0748     5.5918     0.4165 C.ar    
  12 C12            0.0338     4.2072     0.3167 C.ar    
  13 C13           -1.1623     3.5562     0.1195 C.ar    
  14 C14           -2.3559     4.3015     0.0182 C.ar    
  15 C15           -3.5807     3.6489    -0.1955 C.ar    
  16 C16           -4.7299     4.3707    -0.2895 C.ar    
  17 C17           -4.7014     5.7585    -0.1711 C.ar    
  18 O18           -3.7529     8.4183     1.5737 O.2     
  19 O19           -4.4838     8.6169    -0.7852 O.2     
  20 C20           -1.6697     8.4416    -1.8063 C.3     
  21 H21            0.7558    -0.3546    -1.0574 H       
  22 H22           -0.1419    -0.3656     0.4795 H       
  23 H23           -1.0239    -0.3836    -1.0665 H       
  24 H24           -1.9564     1.6674     0.3618 H       
  25 H25           -1.6487     9.6703    -0.0284 H       
  26 H26           -0.2437     8.1129     0.9943 H       
  27 H27            1.0241     6.0837     0.5689 H       
  28 H28            0.9478     3.6371     0.3943 H       
  29 H29           -3.6104     2.5731    -0.2857 H       
  30 H30           -5.6695     3.8652    -0.4566 H       
  31 H31           -5.6225     6.3175    -0.2454 H       
  32 H32           -2.3780     9.0751    -2.3403 H       
  33 H33           -0.6530     8.7149    -2.0888 H       
  34 H34           -1.8501     7.3978    -2.0636 H       
@<TRIPOS>BOND
   1    1    2 1
   2    1    3 2
   3    1    4 am
   4    2   21 1
   5    2   22 1
   6    2   23 1
   7    4   13 1
   8    4   24 1
   9    5    6 1
  10    5   10 1
  11    5   18 2
  12    5   19 2
  13    6    7 1
  14    6   20 1
  15    6   25 1
  16    7    8 1
  17    7   26 1
  18    8    9 ar
  19    8   11 ar
  20    9   10 ar
  21    9   14 ar
  22   10   17 ar
  23   11   12 ar
  24   11   27 1
  25   12   13 ar
  26   12   28 1
  27   13   14 ar
  28   14   15 ar
  29   15   16 ar
  30   15   29 1
  31   16   17 ar
  32   16   30 1
  33   17   31 1
  34   20   32 1
  35   20   33 1
  36   20   34 1

#	End of record

