#	Name: ASD04880444
#	Creating user name:	WinNT
#	Creation time:	15. 06. 2019 20:53

#	Modifying user name:	WinNT
#	Modification time:	15. 06. 2019 20:53

#	Program:	/corina/corina34_cracker 3.40 0067  02.08.2006

@<TRIPOS>MOLECULE
ASD04880444
  50   52    0    0    0
SMALL
NO_CHARGES


@<TRIPOS>ATOM
   1 C1            -0.0144     1.2116     0.0087 C.2     
   2 O2             0.0404    -0.0027     0.0320 O.2     
   3 N3             1.1204     1.9364    -0.0489 N.am    
   4 N4             1.1916     3.3206    -0.1924 N.2     
   5 C5             2.3931     3.7856    -0.2218 C.2     
   6 C6             3.3788     2.6469    -0.0872 C.3     
   7 C7             2.4864     1.3959     0.0357 C.3     
   8 C8             2.7514     5.2082    -0.3651 C.ar    
   9 C9             1.7492     6.1749    -0.4820 C.ar    
  10 C10            2.0889     7.5038    -0.6159 C.ar    
  11 C11            3.4249     7.8827    -0.6351 C.ar    
  12 C12            4.4247     6.9251    -0.5193 C.ar    
  13 C13            4.0945     5.5949    -0.3788 C.ar    
  14 O14            3.7551     9.1937    -0.7682 O.3     
  15 C15            5.1477     9.5140    -0.7804 C.3     
  16 C16            1.0090     8.5474    -0.7420 C.3     
  17 C17            2.7088     0.7028     1.3815 C.3     
  18 C18            2.7559     0.4301    -1.1199 C.3     
  19 C19           -1.3271     1.8935     0.0375 C.ar    
  20 C20           -2.5034     1.1475    -0.0542 C.ar    
  21 C21           -3.7259     1.7827    -0.0270 C.ar    
  22 C22           -3.7881     3.1720     0.0919 C.ar    
  23 C23           -2.6120     3.9180     0.1831 C.ar    
  24 C24           -1.3895     3.2825     0.1621 C.ar    
  25 C25           -5.1013     3.8541     0.1206 C.2     
  26 O26           -6.1253     3.2046     0.0408 O.2     
  27 N27           -5.1614     5.1957     0.2354 N.am    
  28 H28            4.0128     2.5835    -0.9715 H       
  29 H29            3.9844     2.7696     0.8107 H       
  30 H30            0.7100     5.8811    -0.4678 H       
  31 H31            5.4623     7.2243    -0.5351 H       
  32 H32            4.8723     4.8517    -0.2839 H       
  33 H33            5.6304     9.0043    -1.6143 H       
  34 H34            5.2718    10.5911    -0.8920 H       
  35 H35            5.6030     9.1908     0.1557 H       
  36 H36            0.7327     8.9060     0.2495 H       
  37 H37            1.3773     9.3808    -1.3402 H       
  38 H38            0.1360     8.1101    -1.2266 H       
  39 H39            2.0149    -0.1322     1.4792 H       
  40 H40            3.7326     0.3325     1.4347 H       
  41 H41            2.5372     1.4142     2.1893 H       
  42 H42            2.6174     0.9501    -2.0678 H       
  43 H43            3.7794     0.0612    -1.0540 H       
  44 H44            2.0627    -0.4091    -1.0612 H       
  45 H45           -2.4553     0.0726    -0.1469 H       
  46 H46           -4.6360     1.2055    -0.0979 H       
  47 H47           -2.6602     4.9931     0.2743 H       
  48 H48           -0.4795     3.8598     0.2330 H       
  49 H49           -4.3440     5.7141     0.2991 H       
  50 H50           -6.0220     5.6428     0.2542 H       
@<TRIPOS>BOND
   1    1    2 2
   2    1    3 am
   3    1   19 1
   4    3    4 1
   5    3    7 1
   6    4    5 2
   7    5    6 1
   8    5    8 1
   9    6    7 1
  10    6   28 1
  11    6   29 1
  12    7   17 1
  13    7   18 1
  14    8    9 ar
  15    8   13 ar
  16    9   10 ar
  17    9   30 1
  18   10   11 ar
  19   10   16 1
  20   11   12 ar
  21   11   14 1
  22   12   13 ar
  23   12   31 1
  24   13   32 1
  25   14   15 1
  26   15   33 1
  27   15   34 1
  28   15   35 1
  29   16   36 1
  30   16   37 1
  31   16   38 1
  32   17   39 1
  33   17   40 1
  34   17   41 1
  35   18   42 1
  36   18   43 1
  37   18   44 1
  38   19   20 ar
  39   19   24 ar
  40   20   21 ar
  41   20   45 1
  42   21   22 ar
  43   21   46 1
  44   22   23 ar
  45   22   25 1
  46   23   24 ar
  47   23   47 1
  48   24   48 1
  49   25   26 2
  50   25   27 am
  51   27   49 1
  52   27   50 1

#	End of record

