#	Name: ASD04370029
#	Creating user name:	WinNT
#	Creation time:	15. 06. 2019 20:49

#	Modifying user name:	WinNT
#	Modification time:	15. 06. 2019 20:49

#	Program:	/corina/corina34_cracker 3.40 0067  02.08.2006

@<TRIPOS>MOLECULE
ASD04370029
  63   63    0    0    0
SMALL
NO_CHARGES


@<TRIPOS>ATOM
   1 C1             3.2665    -0.4331    -0.7076 C.2     
   2 C2             1.9337     0.2213    -0.9655 C.3     
   3 C3             0.9276    -0.2366     0.0924 C.3     
   4 C4            -0.4556     0.3252    -0.2424 C.3     
   5 O5             3.4224    -1.1302     0.2804 O.co2   
   6 O6             4.1875    -0.2694    -1.4897 O.co2   
   7 N7            -1.4387    -0.1875     0.7212 N.4     
   8 C8            -1.1266     0.3285     2.0607 C.3     
   9 C9            -2.7843     0.2517     0.3285 C.3     
  10 C10           -1.3882    -1.6556     0.7380 C.3     
  11 N11            1.3472     0.2508     1.4087 N.am    
  12 C12            1.5401     1.5696     1.6089 C.2     
  13 C13            2.0815     2.0603     2.9269 C.3     
  14 C14            2.2039     3.5850     2.8920 C.3     
  15 C15            2.7536     4.0833     4.2301 C.3     
  16 C16            2.8761     5.6080     4.1952 C.3     
  17 C17            3.4257     6.1062     5.5333 C.3     
  18 C18            3.5482     7.6309     5.4984 C.3     
  19 C19            4.0978     8.1292     6.8365 C.3     
  20 C20            4.2203     9.6539     6.8016 C.3     
  21 C21            4.7700    10.1521     8.1397 C.3     
  22 O22            1.2780     2.3614     0.7284 O.2     
  23 C23            3.8998    12.4621     8.4854 C.2     
  24 C24            4.8905    11.6539     8.1053 C.2     
  25 C25            6.0380    12.2992     7.6774 C.2     
  26 C26            5.9791    13.6313     7.7100 C.2     
  27 S27            4.4044    14.1377     8.3080 S.3     
  28 H28            2.0452     1.3045    -0.9162 H       
  29 H29            1.5751    -0.0624    -1.9549 H       
  30 H30            0.8841    -1.3256     0.1051 H       
  31 H31           -0.4283     1.4136    -0.1892 H       
  32 H32           -0.7388     0.0176    -1.2490 H       
  33 H33           -0.9681     1.4056     2.0073 H       
  34 H34           -1.9568     0.1163     2.7343 H       
  35 H35           -0.2232    -0.1536     2.4344 H       
  36 H36           -3.0159    -0.1312    -0.6654 H       
  37 H37           -3.5138    -0.1288     1.0435 H       
  38 H38           -2.8218     1.3410     0.3161 H       
  39 H39           -0.3897    -1.9815     1.0293 H       
  40 H40           -2.1177    -2.0361     1.4530 H       
  41 H41           -1.6198    -2.0385    -0.2560 H       
  42 H42            1.4862    -0.3756     2.1361 H       
  43 H43            1.4040     1.7685     3.7293 H       
  44 H44            3.0634     1.6209     3.1025 H       
  45 H45            2.8815     3.8769     2.0895 H       
  46 H46            1.2220     4.0245     2.7163 H       
  47 H47            2.0761     3.7915     5.0325 H       
  48 H48            3.7356     3.6439     4.4058 H       
  49 H49            3.5536     5.8998     3.3927 H       
  50 H50            1.8941     6.0474     4.0195 H       
  51 H51            2.7482     5.8144     6.3357 H       
  52 H52            4.4077     5.6668     5.7090 H       
  53 H53            4.2257     7.9228     4.6960 H       
  54 H54            2.5662     8.0704     5.3227 H       
  55 H55            3.4203     7.8374     7.6389 H       
  56 H56            5.0798     7.6898     7.0122 H       
  57 H57            4.8978     9.9457     5.9992 H       
  58 H58            3.2383    10.0933     6.6259 H       
  59 H59            4.0924     9.8603     8.9421 H       
  60 H60            5.7519     9.7127     8.3154 H       
  61 H61            2.9338    12.1374     8.8429 H       
  62 H62            6.9147    11.7644     7.3429 H       
  63 H63            6.7765    14.2972     7.4149 H       
@<TRIPOS>BOND
   1    1    2 1
   2    1    5 ar
   3    1    6 ar
   4    2    3 1
   5    2   28 1
   6    2   29 1
   7    3    4 1
   8    3   11 1
   9    3   30 1
  10    4    7 1
  11    4   31 1
  12    4   32 1
  13    7    8 1
  14    7    9 1
  15    7   10 1
  16    8   33 1
  17    8   34 1
  18    8   35 1
  19    9   36 1
  20    9   37 1
  21    9   38 1
  22   10   39 1
  23   10   40 1
  24   10   41 1
  25   11   12 am
  26   11   42 1
  27   12   13 1
  28   12   22 2
  29   13   14 1
  30   13   43 1
  31   13   44 1
  32   14   15 1
  33   14   45 1
  34   14   46 1
  35   15   16 1
  36   15   47 1
  37   15   48 1
  38   16   17 1
  39   16   49 1
  40   16   50 1
  41   17   18 1
  42   17   51 1
  43   17   52 1
  44   18   19 1
  45   18   53 1
  46   18   54 1
  47   19   20 1
  48   19   55 1
  49   19   56 1
  50   20   21 1
  51   20   57 1
  52   20   58 1
  53   21   24 1
  54   21   59 1
  55   21   60 1
  56   23   24 2
  57   23   27 1
  58   23   61 1
  59   24   25 1
  60   25   26 2
  61   25   62 1
  62   26   27 1
  63   26   63 1

#	End of record

