#	Name: ASD01810004
#	Creating user name:	WinNT
#	Creation time:	15. 06. 2019 19:23

#	Modifying user name:	WinNT
#	Modification time:	15. 06. 2019 19:23

#	Program:	/corina/corina34_cracker 3.40 0067  02.08.2006

@<TRIPOS>MOLECULE
ASD01810004
  37   41    0    0    0
SMALL
NO_CHARGES


@<TRIPOS>ATOM
   1 N1            -0.0163     1.3479     0.0095 N.am    
   2 C2             0.0021    -0.0041     0.0020 C.2     
   3 C3            -1.2675    -0.7371    -0.3575 C.3     
   4 C4            -2.5159    -0.1240     0.2723 C.3     
   5 C5            -2.5123     1.3730     0.1207 C.ar    
   6 C6            -1.2661     1.9808     0.0316 C.ar    
   7 C7            -3.6303     2.1614     0.0684 C.ar    
   8 C8            -3.5034     3.5488    -0.0476 C.ar    
   9 C9            -2.2641     4.1482    -0.0978 C.ar    
  10 C10           -1.1114     3.3585    -0.0513 C.ar    
  11 C11            0.9559     2.3070     0.0053 C.ar    
  12 C12            0.3357     3.5832    -0.0417 C.ar    
  13 C13            1.0889     4.7564    -0.0673 C.ar    
  14 C14            2.4684     4.6216    -0.0387 C.ar    
  15 C15            3.0750     3.3802     0.0132 C.ar    
  16 C16            2.3456     2.2038     0.0382 C.ar    
  17 C17           -4.7732     4.3583    -0.1212 C.3     
  18 N18           -4.5084     5.7653     0.1916 N.3     
  19 C19           -3.4203     6.2791    -0.6556 C.3     
  20 C20           -2.1086     5.6434    -0.1951 C.3     
  21 O21            1.0139    -0.6129     0.2771 O.2     
  22 Cl22           0.3324     6.3175    -0.1327 Cl      
  23 H23           -1.3818    -0.7282    -1.4414 H       
  24 H24           -1.1802    -1.7717    -0.0257 H       
  25 H25           -3.4010    -0.5316    -0.2163 H       
  26 H26           -2.5440    -0.3769     1.3321 H       
  27 H27           -4.6109     1.7113     0.1164 H       
  28 H28            3.0846     5.5083    -0.0577 H       
  29 H29            4.1534     3.3266     0.0363 H       
  30 H30            2.8350     1.2420     0.0794 H       
  31 H31           -5.1876     4.2858    -1.1267 H       
  32 H32           -5.4942     3.9612     0.5933 H       
  33 H33           -5.3429     6.3225     0.0858 H       
  34 H34           -3.6100     6.0162    -1.6963 H       
  35 H35           -3.3578     7.3627    -0.5558 H       
  36 H36           -1.8368     6.0429     0.7820 H       
  37 H37           -1.3216     5.8791    -0.9114 H       
@<TRIPOS>BOND
   1    1    2 am
   2    1   11 1
   3    1    6 1
   4    2    3 1
   5    2   21 2
   6    3    4 1
   7    3   23 1
   8    3   24 1
   9    4    5 1
  10    4   25 1
  11    4   26 1
  12    5    6 ar
  13    5    7 ar
  14    6   10 ar
  15    7    8 ar
  16    7   27 1
  17    8    9 ar
  18    8   17 1
  19    9   10 ar
  20    9   20 1
  21   10   12 1
  22   11   12 ar
  23   11   16 ar
  24   12   13 ar
  25   13   14 ar
  26   13   22 1
  27   14   15 ar
  28   14   28 1
  29   15   16 ar
  30   15   29 1
  31   16   30 1
  32   17   18 1
  33   17   31 1
  34   17   32 1
  35   18   19 1
  36   18   33 1
  37   19   20 1
  38   19   34 1
  39   19   35 1
  40   20   36 1
  41   20   37 1

#	End of record

