#	Name: ASD03320144
#	Creating user name:	WinNT
#	Creation time:	15. 06. 2019 20:36

#	Modifying user name:	WinNT
#	Modification time:	15. 06. 2019 20:36

#	Program:	/corina/corina34_cracker 3.40 0067  02.08.2006

@<TRIPOS>MOLECULE
ASD03320144
  36   38    0    0    0
SMALL
NO_CHARGES


@<TRIPOS>ATOM
   1 C1            -0.0182     1.4732     0.0148 C.2     
   2 C2             0.0014    -0.0045     0.0118 C.ar    
   3 C3             1.2161    -0.6979     0.0013 C.ar    
   4 C4             1.1786    -2.0931    -0.0006 C.ar    
   5 C5            -0.0619    -2.7381     0.0079 C.ar    
   6 N6            -1.1841    -2.0458     0.0176 N.ar    
   7 C7            -1.1921    -0.7285     0.0252 C.ar    
   8 O8             1.0265     2.0950     0.0082 O.2     
   9 N9            -1.1942     2.1315     0.0193 N.am    
  10 N10            3.3740    -2.9163     0.9760 N.pl3   
  11 N11            4.3954    -3.7794     0.5601 N.2     
  12 C12            4.0950    -4.2470    -0.6248 C.2     
  13 C13            2.8701    -3.7063    -1.0215 C.2     
  14 C14            2.4326    -2.8777    -0.0120 C.2     
  15 F15            2.2300    -3.9513    -2.1858 F       
  16 C16           -1.2149     3.5271     0.1327 C.ar    
  17 C17           -2.1833     4.2641    -0.5363 C.ar    
  18 C18           -2.2031     5.6402    -0.4240 C.ar    
  19 C19           -1.2559     6.2865     0.3568 C.ar    
  20 C20           -0.2882     5.5509     1.0254 C.ar    
  21 C21           -0.2706     4.1743     0.9187 C.ar    
  22 O22           -1.2757     7.6416     0.4665 O.3     
  23 C23           -0.2708     8.2409     1.2869 C.3     
  24 F24           -0.3860     7.7562     2.5942 F       
  25 F25            0.9944     7.9231     0.7815 F       
  26 Cl26          -0.4851    10.0311     1.2886 Cl      
  27 Cl27          -0.1254    -4.4729     0.0050 Cl      
  28 H28            2.1573    -0.1682    -0.0054 H       
  29 H29           -2.1348    -0.2016     0.0374 H       
  30 H30           -2.0262     1.6386    -0.0560 H       
  31 H31            3.3395    -2.4351     1.8175 H       
  32 H32            4.6951    -4.9362    -1.2004 H       
  33 H33           -2.9205     3.7611    -1.1445 H       
  34 H34           -2.9559     6.2136    -0.9445 H       
  35 H35            0.4488     6.0548     1.6331 H       
  36 H36            0.4798     3.6014     1.4431 H       
@<TRIPOS>BOND
   1    1    2 1
   2    1    8 2
   3    1    9 am
   4    2    3 ar
   5    2    7 ar
   6    3    4 ar
   7    3   28 1
   8    4    5 ar
   9    4   14 1
  10    5    6 ar
  11    5   27 1
  12    6    7 ar
  13    7   29 1
  14    9   16 1
  15    9   30 1
  16   10   11 1
  17   10   14 1
  18   10   31 1
  19   11   12 2
  20   12   13 1
  21   12   32 1
  22   13   14 2
  23   13   15 1
  24   16   17 ar
  25   16   21 ar
  26   17   18 ar
  27   17   33 1
  28   18   19 ar
  29   18   34 1
  30   19   20 ar
  31   19   22 1
  32   20   21 ar
  33   20   35 1
  34   21   36 1
  35   22   23 1
  36   23   24 1
  37   23   25 1
  38   23   26 1

#	End of record

