#	Name: ASD03950077
#	Creating user name:	WinNT
#	Creation time:	15. 06. 2019 20:48

#	Modifying user name:	WinNT
#	Modification time:	15. 06. 2019 20:48

#	Program:	/corina/corina34_cracker 3.40 0067  02.08.2006

@<TRIPOS>MOLECULE
ASD03950077
  51   54    0    0    0
SMALL
NO_CHARGES


@<TRIPOS>ATOM
   1 N1            -0.0066     1.3714    -0.0219 N.pl3   
   2 N2             0.0164    -0.0268    -0.0344 N.2     
   3 C3             1.2466    -0.4532    -0.0471 C.2     
   4 C4             2.1215     0.7167    -0.0431 C.ar    
   5 C5             3.5085     0.8863    -0.0516 C.ar    
   6 C6             4.0493     2.1643    -0.0442 C.ar    
   7 C7             3.2161     3.2842    -0.0278 C.ar    
   8 C8             1.8352     3.1325    -0.0187 C.ar    
   9 C9             1.2753     1.8414    -0.0270 C.ar    
  10 C10            0.9596     4.3197    -0.0004 C.2     
  11 O11           -0.2487     4.1838     0.0075 O.2     
  12 N12            1.4989     5.5548     0.0075 N.am    
  13 N13            1.0014    -4.6987    -0.0780 N.3     
  14 C14            1.5570    -4.0818     1.1333 C.3     
  15 C15            1.1571    -2.6055     1.1848 C.3     
  16 C16            1.6883    -1.8940    -0.0626 C.3     
  17 C17            1.1332    -2.5860    -1.3106 C.3     
  18 C18            1.5338    -4.0628    -1.2898 C.3     
  19 C19            5.5229     2.3415    -0.0532 C.ar    
  20 C20            6.0721     3.6210    -0.0459 C.ar    
  21 C21            7.4494     3.7799    -0.0545 C.ar    
  22 C22            8.2770     2.6636    -0.0704 C.ar    
  23 C23            7.7311     1.3944    -0.0776 C.ar    
  24 C24            6.3603     1.2279    -0.0634 C.ar    
  25 N25            8.0059     5.0638    -0.0476 N.am    
  26 C26            9.1581     5.2953     0.6121 C.2     
  27 O27            9.6620     4.4167     1.2793 O.2     
  28 C28            9.8204     6.6459     0.5208 C.3     
  29 H29           -0.8063     1.9203    -0.0149 H       
  30 H30            4.1587     0.0240    -0.0635 H       
  31 H31            3.6476     4.2743    -0.0218 H       
  32 H32            2.4628     5.6631     0.0012 H       
  33 H33            0.9232     6.3354     0.0195 H       
  34 H34            1.1706    -5.6934    -0.0874 H       
  35 H35            1.1680    -4.5944     2.0131 H       
  36 H36            2.6438    -4.1633     1.1166 H       
  37 H37            0.0706    -2.5236     1.2155 H       
  38 H38            1.5827    -2.1441     2.0759 H       
  39 H39            2.7773    -1.9410    -0.0728 H       
  40 H40            0.0463    -2.5038    -1.3192 H       
  41 H41            1.5417    -2.1106    -2.2024 H       
  42 H42            2.6207    -4.1444    -1.2952 H       
  43 H43            1.1280    -4.5616    -2.1699 H       
  44 H44            5.4270     4.4871    -0.0339 H       
  45 H45            9.3497     2.7886    -0.0774 H       
  46 H46            8.3783     0.5299    -0.0903 H       
  47 H47            5.9371     0.2342    -0.0646 H       
  48 H48            7.5624     5.7872    -0.5177 H       
  49 H49            9.2263     7.2994    -0.1181 H       
  50 H50            9.8954     7.0819     1.5169 H       
  51 H51           10.8185     6.5333     0.0973 H       
@<TRIPOS>BOND
   1    1    2 1
   2    1    9 1
   3    1   29 1
   4    2    3 2
   5    3    4 1
   6    3   16 1
   7    4    5 ar
   8    4    9 ar
   9    5    6 ar
  10    5   30 1
  11    6    7 ar
  12    6   19 1
  13    7    8 ar
  14    7   31 1
  15    8    9 ar
  16    8   10 1
  17   10   11 2
  18   10   12 am
  19   12   32 1
  20   12   33 1
  21   13   14 1
  22   13   18 1
  23   13   34 1
  24   14   15 1
  25   14   35 1
  26   14   36 1
  27   15   16 1
  28   15   37 1
  29   15   38 1
  30   16   17 1
  31   16   39 1
  32   17   18 1
  33   17   40 1
  34   17   41 1
  35   18   42 1
  36   18   43 1
  37   19   20 ar
  38   19   24 ar
  39   20   21 ar
  40   20   44 1
  41   21   22 ar
  42   21   25 1
  43   22   23 ar
  44   22   45 1
  45   23   24 ar
  46   23   46 1
  47   24   47 1
  48   25   26 am
  49   25   48 1
  50   26   27 2
  51   26   28 1
  52   28   49 1
  53   28   50 1
  54   28   51 1

#	End of record

