#	Name: ASD03730966
#	Creating user name:	WinNT
#	Creation time:	15. 06. 2019 20:45

#	Modifying user name:	WinNT
#	Modification time:	15. 06. 2019 20:45

#	Program:	/corina/corina34_cracker 3.40 0067  02.08.2006

@<TRIPOS>MOLECULE
ASD03730966
  72   79    0    0    0
SMALL
NO_CHARGES


@<TRIPOS>ATOM
   1 C1            -0.0182     1.4736     0.0148 C.2     
   2 C2             0.0015    -0.0045     0.0117 C.ar    
   3 C3             1.2179    -0.6895     0.0012 C.ar    
   4 C4             1.2291    -2.0688    -0.0017 C.ar    
   5 C5             0.0382    -2.7735     0.0059 C.ar    
   6 C6            -1.1706    -2.1009     0.0158 C.ar    
   7 C7            -1.1960    -0.7214     0.0251 C.ar    
   8 O8             1.0265     2.0953     0.0081 O.2     
   9 N9            -1.1942     2.1319     0.0193 N.am    
  10 C10            2.5412    -2.8099    -0.0135 C.3     
  11 O11           -0.9082    -3.3035     6.2753 O.3     
  12 C12           -0.9516    -3.5536     7.6925 C.3     
  13 O13           -0.0471    -4.6592     7.8728 O.3     
  14 C14            0.8525    -4.5664     6.8495 C.ar    
  15 C15            0.3219    -3.7335     5.8671 C.ar    
  16 C16            2.1019    -5.1338     6.6745 C.ar    
  17 C17            2.8359    -4.8802     5.5198 C.ar    
  18 C18            2.2919    -4.0531     4.5418 C.ar    
  19 C19            1.0491    -3.4810     4.7160 C.ar    
  20 O20            4.0766    -5.3191     5.1613 O.3     
  21 C21            3.2954    -3.9965     3.4212 C.3     
  22 C22            4.2444    -5.1599     3.7394 C.3     
  23 N23            2.9773    -3.0528     1.3638 N.am    
  24 C24            2.6516    -4.1516     2.0735 C.2     
  25 C25            4.0182    -2.6833     3.3679 C.ar    
  26 C26            4.7887    -1.9841     4.2699 C.ar    
  27 C27            5.3354    -0.7637     3.9150 C.ar    
  28 C28            5.1055    -0.2477     2.6525 C.ar    
  29 C29            4.3336    -0.9437     1.7458 C.ar    
  30 C30            3.7797    -2.1731     2.0944 C.ar    
  31 O31            1.9722    -5.0832     1.6971 O.2     
  32 C32           -1.2149     3.5278     0.1327 C.ar    
  33 C33           -2.1835     4.2645    -0.5364 C.ar    
  34 C34           -2.2041     5.6404    -0.4247 C.ar    
  35 C35           -1.2560     6.2878     0.3569 C.ar    
  36 C36           -0.2873     5.5510     1.0262 C.ar    
  37 C37           -0.2704     4.1747     0.9188 C.ar    
  38 N38           -1.2764     7.6821     0.4698 N.3     
  39 C39           -0.1907     8.1561     1.3404 C.3     
  40 C40           -0.2133     9.6862     1.3881 C.3     
  41 O41           -1.4982    10.1252     1.8372 O.3     
  42 C42           -2.5789     9.6820     1.0120 C.3     
  43 C43           -2.5802     8.1519     0.9604 C.3     
  44 H44            2.1480    -0.1407    -0.0051 H       
  45 H45            0.0525    -3.8534     0.0036 H       
  46 H46           -2.0965    -2.6568     0.0213 H       
  47 H47           -2.1403    -0.1974     0.0377 H       
  48 H48           -2.0262     1.6390    -0.0560 H       
  49 H49            2.4158    -3.7625    -0.5283 H       
  50 H50            3.2912    -2.2127    -0.5321 H       
  51 H51           -0.6051    -2.6811     8.2462 H       
  52 H52           -1.9598    -3.8293     8.0020 H       
  53 H53            2.5104    -5.7779     7.4391 H       
  54 H54            0.6418    -2.8346     3.9526 H       
  55 H55            5.2743    -4.8965     3.4982 H       
  56 H56            3.9407    -6.0631     3.2102 H       
  57 H57            4.9668    -2.3889     5.2553 H       
  58 H58            5.9405    -0.2155     4.6219 H       
  59 H59            5.5321     0.7050     2.3755 H       
  60 H60            4.1581    -0.5340     0.7621 H       
  61 H61           -2.9205     3.7610    -1.1445 H       
  62 H62           -2.9571     6.2133    -0.9454 H       
  63 H63            0.4499     6.0544     1.6340 H       
  64 H64            0.4801     3.6014     1.4427 H       
  65 H65           -0.3303     7.7585     2.3456 H       
  66 H66            0.7670     7.8184     0.9444 H       
  67 H67            0.5536    10.0402     2.0771 H       
  68 H68           -0.0204    10.0843     0.3919 H       
  69 H69           -3.5229    10.0329     1.4289 H       
  70 H70           -2.4547    10.0800     0.0048 H       
  71 H71           -3.3668     7.8110     0.2871 H       
  72 H72           -2.7580     7.7542     1.9596 H       
@<TRIPOS>BOND
   1    1    2 1
   2    1    8 2
   3    1    9 am
   4    2    3 ar
   5    2    7 ar
   6    3    4 ar
   7    3   44 1
   8    4    5 ar
   9    4   10 1
  10    5    6 ar
  11    5   45 1
  12    6    7 ar
  13    6   46 1
  14    7   47 1
  15    9   32 1
  16    9   48 1
  17   10   23 1
  18   10   49 1
  19   10   50 1
  20   11   12 1
  21   11   15 1
  22   12   13 1
  23   12   51 1
  24   12   52 1
  25   13   14 1
  26   14   15 ar
  27   14   16 ar
  28   15   19 ar
  29   16   17 ar
  30   16   53 1
  31   17   18 ar
  32   17   20 1
  33   18   19 ar
  34   18   21 1
  35   19   54 1
  36   20   22 1
  37   21   22 1
  38   21   24 1
  39   21   25 1
  40   22   55 1
  41   22   56 1
  42   23   24 am
  43   23   30 1
  44   24   31 2
  45   25   26 ar
  46   25   30 ar
  47   26   27 ar
  48   26   57 1
  49   27   28 ar
  50   27   58 1
  51   28   29 ar
  52   28   59 1
  53   29   30 ar
  54   29   60 1
  55   32   33 ar
  56   32   37 ar
  57   33   34 ar
  58   33   61 1
  59   34   35 ar
  60   34   62 1
  61   35   36 ar
  62   35   38 1
  63   36   37 ar
  64   36   63 1
  65   37   64 1
  66   38   39 1
  67   38   43 1
  68   39   40 1
  69   39   65 1
  70   39   66 1
  71   40   41 1
  72   40   67 1
  73   40   68 1
  74   41   42 1
  75   42   43 1
  76   42   69 1
  77   42   70 1
  78   43   71 1
  79   43   72 1

#	End of record

