#	Name: ASD01510090
#	Creating user name:	WinNT
#	Creation time:	15. 06. 2019 19:21

#	Modifying user name:	WinNT
#	Modification time:	15. 06. 2019 19:21

#	Program:	/corina/corina34_cracker 3.40 0067  02.08.2006

@<TRIPOS>MOLECULE
ASD01510090
  60   63    0    0    0
SMALL
NO_CHARGES


@<TRIPOS>ATOM
   1 C1            -0.0689     1.7805    -0.6671 C.3     
   2 O2             0.0480     0.3701    -0.4689 O.3     
   3 C3            -1.0999    -0.3180    -0.2484 C.ar    
   4 N4            -2.2691     0.3129    -0.2223 N.ar    
   5 C5            -3.3944    -0.3514    -0.0077 C.ar    
   6 N6            -3.4054    -1.6610     0.1887 N.ar    
   7 C7            -2.2762    -2.3612     0.1771 C.ar    
   8 C8            -1.0701    -1.6986    -0.0515 C.ar    
   9 S9             0.4544    -2.5817    -0.0773 S.3     
  10 C10            0.6192    -3.0385    -1.7711 C.ar    
  11 C11           -0.3583    -2.6720    -2.6892 C.ar    
  12 C12           -0.2294    -3.0300    -4.0172 C.ar    
  13 C13            0.8703    -3.7534    -4.4373 C.ar    
  14 C14            1.8510    -4.1235    -3.5248 C.ar    
  15 C15            1.7288    -3.7603    -2.1919 C.ar    
  16 N16            2.9637    -4.8568    -3.9516 N.am    
  17 C17            3.4962    -4.6266    -5.1682 C.2     
  18 O18            2.9615    -3.8452    -5.9262 O.2     
  19 C19            4.7558    -5.3402    -5.5866 C.3     
  20 C20            5.2336    -4.9689    -7.0004 C.3     
  21 C21            6.6640    -4.9845    -6.4359 C.3     
  22 C22            6.0416    -4.6783    -5.0635 C.3     
  23 O23           -2.2965    -3.7023     0.3791 O.3     
  24 C24           -3.5728    -4.3058     0.6002 C.3     
  25 N25           -4.5940     0.3434     0.0124 N.3     
  26 C26           -5.7233    -0.5628     0.2635 C.3     
  27 C27           -7.0161     0.2512     0.3571 C.3     
  28 N28           -7.2125     0.9992    -0.8926 N.3     
  29 C29           -6.0831     1.9054    -1.1436 C.3     
  30 C30           -4.7904     1.0914    -1.2372 C.3     
  31 C31           -8.4835     1.7354    -0.8713 C.3     
  32 H32            0.9203     2.2074    -0.8323 H       
  33 H33           -0.6980     1.9743    -1.5358 H       
  34 H34           -0.5181     2.2354     0.2157 H       
  35 H35           -1.2195    -2.1072    -2.3639 H       
  36 H36           -0.9901    -2.7442    -4.7286 H       
  37 H37            0.9677    -4.0319    -5.4762 H       
  38 H38            2.4896    -4.0468    -1.4810 H       
  39 H39            3.3518    -5.5307    -3.3719 H       
  40 H40            4.7127    -6.4147    -5.4084 H       
  41 H41            5.0483    -5.7459    -7.7420 H       
  42 H42            4.9040    -3.9828    -7.3277 H       
  43 H43            7.1439    -5.9617    -6.4895 H       
  44 H44            7.2933    -4.1812    -6.8190 H       
  45 H45            5.9329    -3.6128    -4.8612 H       
  46 H46            6.5086    -5.2207    -4.2414 H       
  47 H47           -3.4470    -5.3785     0.7472 H       
  48 H48           -4.0326    -3.8690     1.4868 H       
  49 H49           -4.2125    -4.1302    -0.2647 H       
  50 H50           -5.8032    -1.2794    -0.5539 H       
  51 H51           -5.5606    -1.0958     1.2002 H       
  52 H52           -7.8590    -0.4218     0.5144 H       
  53 H53           -6.9468     0.9490     1.1915 H       
  54 H54           -6.2459     2.4384    -2.0804 H       
  55 H55           -6.0032     2.6220    -0.3262 H       
  56 H56           -3.9475     1.7643    -1.3945 H       
  57 H57           -4.8597     0.3935    -2.0717 H       
  58 H58           -8.4817     2.4394    -0.0391 H       
  59 H59           -8.6037     2.2800    -1.8078 H       
  60 H60           -9.3083     1.0329    -0.7511 H       
@<TRIPOS>BOND
   1    1    2 1
   2    1   32 1
   3    1   33 1
   4    1   34 1
   5    2    3 1
   6    3    4 ar
   7    3    8 ar
   8    4    5 ar
   9    5    6 ar
  10    5   25 1
  11    6    7 ar
  12    7    8 ar
  13    7   23 1
  14    8    9 1
  15    9   10 1
  16   10   11 ar
  17   10   15 ar
  18   11   12 ar
  19   11   35 1
  20   12   13 ar
  21   12   36 1
  22   13   14 ar
  23   13   37 1
  24   14   15 ar
  25   14   16 1
  26   15   38 1
  27   16   17 am
  28   16   39 1
  29   17   18 2
  30   17   19 1
  31   19   20 1
  32   19   22 1
  33   19   40 1
  34   20   21 1
  35   20   41 1
  36   20   42 1
  37   21   22 1
  38   21   43 1
  39   21   44 1
  40   22   45 1
  41   22   46 1
  42   23   24 1
  43   24   47 1
  44   24   48 1
  45   24   49 1
  46   25   26 1
  47   25   30 1
  48   26   27 1
  49   26   50 1
  50   26   51 1
  51   27   28 1
  52   27   52 1
  53   27   53 1
  54   28   29 1
  55   28   31 1
  56   29   30 1
  57   29   54 1
  58   29   55 1
  59   30   56 1
  60   30   57 1
  61   31   58 1
  62   31   59 1
  63   31   60 1

#	End of record

