#	Name: ASD01910518
#	Creating user name:	WinNT
#	Creation time:	15. 06. 2019 19:56

#	Modifying user name:	WinNT
#	Modification time:	15. 06. 2019 19:56

#	Program:	/corina/corina34_cracker 3.40 0067  02.08.2006

@<TRIPOS>MOLECULE
ASD01910518
  41   44    0    0    0
SMALL
NO_CHARGES


@<TRIPOS>ATOM
   1 O1             0.0332     1.1148     0.1126 O.3     
   2 C2             0.0371    -0.2172    -0.0590 C.2     
   3 N3             1.3052    -0.5834    -0.1466 N.2     
   4 C4             2.0153     0.5478    -0.0236 C.2     
   5 N5             1.1735     1.5276     0.1294 N.2     
   6 C6            -1.1409    -1.0985    -0.1345 C.2     
   7 N7            -1.1177    -2.4038    -0.3024 N.2     
   8 C8            -2.3684    -2.8664    -0.3220 C.2     
   9 C9            -3.2128    -1.8217    -0.1614 C.2     
  10 N10           -2.4448    -0.7019    -0.0363 N.pl3   
  11 C11            3.9357     1.5752    -1.2134 C.3     
  12 C12            3.5175     0.6629    -0.0559 C.3     
  13 C13            4.0126     1.2599     1.2634 C.3     
  14 C14            5.5405     1.3467     1.2445 C.3     
  15 C15            5.9815     2.2667     0.1018 C.3     
  16 N16            5.3892     1.7810    -1.1520 N.am    
  17 C17            6.1644     1.5286    -2.2252 C.2     
  18 C18            7.6032     1.8615    -2.1917 C.ar    
  19 O19            5.6795     1.0269    -3.2207 O.2     
  20 C20            8.5401     0.9754    -2.7277 C.ar    
  21 C21            9.8814     1.2912    -2.6943 C.ar    
  22 C22           10.3010     2.4861    -2.1298 C.ar    
  23 C23            9.3751     3.3693    -1.5958 C.ar    
  24 C24            8.0309     3.0660    -1.6292 C.ar    
  25 F25           11.6169     2.7908    -2.0997 F       
  26 H26           -2.6579    -3.8995    -0.4451 H       
  27 H27           -4.2915    -1.8667    -0.1330 H       
  28 H28           -2.7639     0.2052     0.0915 H       
  29 H29            3.6728     1.1063    -2.1616 H       
  30 H30            3.4267     2.5349    -1.1244 H       
  31 H31            3.9556    -0.3254    -0.1952 H       
  32 H32            3.5937     2.2581     1.3901 H       
  33 H33            3.6952     0.6253     2.0909 H       
  34 H34            5.8937     1.7501     2.1934 H       
  35 H35            5.9595     0.3519     1.0930 H       
  36 H36            5.6394     3.2828     0.2980 H       
  37 H37            7.0685     2.2541     0.0213 H       
  38 H38            8.2144     0.0442    -3.1673 H       
  39 H39           10.6069     0.6065    -3.1082 H       
  40 H40            9.7073     4.2985    -1.1570 H       
  41 H41            7.3104     3.7547    -1.2133 H       
@<TRIPOS>BOND
   1    1    2 1
   2    1    5 1
   3    2    3 2
   4    2    6 1
   5    3    4 1
   6    4    5 2
   7    4   12 1
   8    6    7 2
   9    6   10 1
  10    7    8 1
  11    8    9 2
  12    8   26 1
  13    9   10 1
  14    9   27 1
  15   10   28 1
  16   11   12 1
  17   11   16 1
  18   11   29 1
  19   11   30 1
  20   12   13 1
  21   12   31 1
  22   13   14 1
  23   13   32 1
  24   13   33 1
  25   14   15 1
  26   14   34 1
  27   14   35 1
  28   15   16 1
  29   15   36 1
  30   15   37 1
  31   16   17 am
  32   17   18 1
  33   17   19 2
  34   18   20 ar
  35   18   24 ar
  36   20   21 ar
  37   20   38 1
  38   21   22 ar
  39   21   39 1
  40   22   23 ar
  41   22   25 1
  42   23   24 ar
  43   23   40 1
  44   24   41 1

#	End of record

