#	Name: ASD01883000
#	Creating user name:	WinNT
#	Creation time:	15. 06. 2019 19:45

#	Modifying user name:	WinNT
#	Modification time:	15. 06. 2019 19:45

#	Program:	/corina/corina34_cracker 3.40 0067  02.08.2006

@<TRIPOS>MOLECULE
ASD01883000
  48   50    0    0    0
SMALL
NO_CHARGES


@<TRIPOS>ATOM
   1 C1            -0.4066     0.6870    -1.3026 C.2     
   2 C2            -0.2381    -0.5471    -0.6487 C.2     
   3 C3            -1.3772    -1.2066    -0.1449 C.2     
   4 C4            -2.6005    -0.6512    -0.2950 C.2     
   5 N5            -2.7638     0.5402    -0.9262 N.am    
   6 C6            -1.7135     1.2196    -1.4229 C.2     
   7 C7            -4.1105     1.1003    -1.0639 C.3     
   8 C8            -4.4218     1.9833     0.1462 C.3     
   9 C9             0.7215     1.3935    -1.8308 C.1     
  10 N10            1.6163     1.9540    -2.2499 N.1     
  11 O11           -1.8880     2.2877    -1.9845 O.2     
  12 C12           -5.8282     2.5683     0.0023 C.3     
  13 C13            1.1053    -1.1400    -0.4938 C.ar    
  14 C14           -6.1395     3.4513     1.2124 C.3     
  15 C15            1.4900    -2.2246    -1.2901 C.ar    
  16 C16            2.7475    -2.7745    -1.1411 C.ar    
  17 C17            3.6282    -2.2526    -0.2029 C.ar    
  18 C18            3.2485    -1.1748     0.5897 C.ar    
  19 C19            1.9988    -0.6160     0.4445 C.ar    
  20 O20            4.8636    -2.7966    -0.0586 O.3     
  21 C21            5.8668    -2.3145    -0.8355 C.ar    
  22 F22            0.6326    -2.7327    -2.2021 F       
  23 C23            7.1287    -2.9035    -0.8193 C.ar    
  24 C24            8.1220    -2.3838    -1.6238 C.ar    
  25 N25            7.8877    -1.3432    -2.4006 N.ar    
  26 C26            6.7056    -0.7579    -2.4436 C.ar    
  27 C27            5.6589    -1.2214    -1.6738 C.ar    
  28 C28            7.4056    -4.0919     0.0651 C.3     
  29 H29           -1.2728    -2.1553     0.3605 H       
  30 H30           -3.4662    -1.1660     0.0949 H       
  31 H31           -4.1639     1.6985    -1.9735 H       
  32 H32           -4.8372     0.2898    -1.1188 H       
  33 H33           -4.3684     1.3851     1.0558 H       
  34 H34           -3.6950     2.7938     0.2011 H       
  35 H35           -5.8816     3.1664    -0.9073 H       
  36 H36           -6.5550     1.7578    -0.0526 H       
  37 H37           -6.0861     2.8531     2.1220 H       
  38 H38           -5.4128     4.2618     1.2673 H       
  39 H39           -7.1415     3.8680     1.1099 H       
  40 H40            3.0465    -3.6116    -1.7545 H       
  41 H41            3.9371    -0.7728     1.3182 H       
  42 H42            1.7059     0.2209     1.0610 H       
  43 H43            9.1037    -2.8340    -1.6173 H       
  44 H44            6.5535     0.0892    -3.0960 H       
  45 H45            4.6939    -0.7381    -1.7139 H       
  46 H46            7.1874    -5.0098    -0.4809 H       
  47 H47            8.4541    -4.0868     0.3628 H       
  48 H48            6.7755    -4.0388     0.9529 H       
@<TRIPOS>BOND
   1    1    2 2
   2    1    9 1
   3    1    6 1
   4    2    3 1
   5    2   13 1
   6    3    4 2
   7    3   29 1
   8    4    5 1
   9    4   30 1
  10    5    7 1
  11    5    6 am
  12    6   11 2
  13    7    8 1
  14    7   31 1
  15    7   32 1
  16    8   12 1
  17    8   33 1
  18    8   34 1
  19    9   10 3
  20   12   14 1
  21   12   35 1
  22   12   36 1
  23   13   15 ar
  24   13   19 ar
  25   14   37 1
  26   14   38 1
  27   14   39 1
  28   15   16 ar
  29   15   22 1
  30   16   17 ar
  31   16   40 1
  32   17   18 ar
  33   17   20 1
  34   18   19 ar
  35   18   41 1
  36   19   42 1
  37   20   21 1
  38   21   23 ar
  39   21   27 ar
  40   23   24 ar
  41   23   28 1
  42   24   25 ar
  43   24   43 1
  44   25   26 ar
  45   26   27 ar
  46   26   44 1
  47   27   45 1
  48   28   46 1
  49   28   47 1
  50   28   48 1

#	End of record

