#	Name: ASD01510084
#	Creating user name:	WinNT
#	Creation time:	15. 06. 2019 19:21

#	Modifying user name:	WinNT
#	Modification time:	15. 06. 2019 19:21

#	Program:	/corina/corina34_cracker 3.40 0067  02.08.2006

@<TRIPOS>MOLECULE
ASD01510084
  52   54    0    0    0
SMALL
NO_CHARGES


@<TRIPOS>ATOM
   1 C1             1.7873    -3.3717    -0.0287 C.3     
   2 C2             0.8099    -2.1947    -0.0179 C.3     
   3 C3            -0.6040    -2.7160    -0.0035 C.2     
   4 O4            -0.8096    -3.9111    -0.0020 O.2     
   5 N5            -1.6400    -1.8540     0.0078 N.am    
   6 C6            -2.9425    -2.3312    -0.0873 C.ar    
   7 C7            -4.0258    -1.4597     0.0309 C.ar    
   8 C8            -5.3035    -1.9780    -0.0706 C.ar    
   9 N9            -5.4613    -3.2765    -0.2756 N.ar    
  10 C10           -4.4134    -4.0810    -0.3840 C.ar    
  11 N11           -3.1733    -3.6223    -0.2975 N.ar    
  12 S12           -4.6758    -5.8019    -0.6566 S.3     
  13 C13           -6.4370    -5.8411    -0.6913 C.ar    
  14 C14           -7.1302    -5.6728    -1.8868 C.ar    
  15 C15           -6.3842    -5.4532    -3.1776 C.3     
  16 N16           -8.4523    -5.7086    -1.8744 N.ar    
  17 C17           -9.1153    -5.9016    -0.7443 C.ar    
  18 N18           -8.4895    -6.0654     0.4114 N.ar    
  19 C19           -7.1685    -6.0469     0.4751 C.ar    
  20 C20           -6.4649    -6.2347     1.7945 C.3     
  21 N21          -10.5014    -5.9324    -0.7716 N.3     
  22 C22          -11.0498    -6.1560     0.5733 C.3     
  23 C23          -12.5783    -6.1040     0.5132 C.3     
  24 N24          -13.0639    -7.1240    -0.4267 N.3     
  25 C25          -12.5155    -6.9005    -1.7716 C.3     
  26 C26          -10.9870    -6.9524    -1.7115 C.3     
  27 C27          -14.5323    -7.1567    -0.4556 C.3     
  28 H28            2.8100    -2.9946    -0.0392 H       
  29 H29            1.6334    -3.9799     0.8626 H       
  30 H30            1.6149    -3.9790    -0.9173 H       
  31 H31            0.9823    -1.5873     0.8707 H       
  32 H32            0.9638    -1.5864    -0.9092 H       
  33 H33           -1.4769    -0.9007     0.0822 H       
  34 H34           -3.8697    -0.4043     0.1983 H       
  35 H35           -6.1636    -1.3306     0.0166 H       
  36 H36           -6.1787    -6.4154    -3.6467 H       
  37 H37           -6.9902    -4.8441    -3.8484 H       
  38 H38           -5.4443    -4.9413    -2.9715 H       
  39 H39           -6.2735    -7.2955     1.9565 H       
  40 H40           -5.5194    -5.6926     1.7825 H       
  41 H41           -7.0930    -5.8519     2.5989 H       
  42 H42          -10.7332    -7.1334     0.9373 H       
  43 H43          -10.6859    -5.3810     1.2479 H       
  44 H44          -12.9880    -6.2983     1.5044 H       
  45 H45          -12.8956    -5.1175     0.1752 H       
  46 H46          -12.8794    -7.6754    -2.4462 H       
  47 H47          -12.8321    -5.9230    -2.1356 H       
  48 H48          -10.5773    -6.7581    -2.7027 H       
  49 H49          -10.6697    -7.9389    -1.3735 H       
  50 H50          -14.9112    -6.1839    -0.7691 H       
  51 H51          -14.8649    -7.9200    -1.1590 H       
  52 H52          -14.9102    -7.3903     0.5397 H       
@<TRIPOS>BOND
   1    1    2 1
   2    1   28 1
   3    1   29 1
   4    1   30 1
   5    2    3 1
   6    2   31 1
   7    2   32 1
   8    3    4 2
   9    3    5 am
  10    5    6 1
  11    5   33 1
  12    6    7 ar
  13    6   11 ar
  14    7    8 ar
  15    7   34 1
  16    8    9 ar
  17    8   35 1
  18    9   10 ar
  19   10   11 ar
  20   10   12 1
  21   12   13 1
  22   13   14 ar
  23   13   19 ar
  24   14   15 1
  25   14   16 ar
  26   15   36 1
  27   15   37 1
  28   15   38 1
  29   16   17 ar
  30   17   18 ar
  31   17   21 1
  32   18   19 ar
  33   19   20 1
  34   20   39 1
  35   20   40 1
  36   20   41 1
  37   21   22 1
  38   21   26 1
  39   22   23 1
  40   22   42 1
  41   22   43 1
  42   23   24 1
  43   23   44 1
  44   23   45 1
  45   24   25 1
  46   24   27 1
  47   25   26 1
  48   25   46 1
  49   25   47 1
  50   26   48 1
  51   26   49 1
  52   27   50 1
  53   27   51 1
  54   27   52 1

#	End of record

