#	Name: ASD01810870
#	Creating user name:	WinNT
#	Creation time:	15. 06. 2019 19:25

#	Modifying user name:	WinNT
#	Modification time:	15. 06. 2019 19:25

#	Program:	/corina/corina34_cracker 3.40 0067  02.08.2006

@<TRIPOS>MOLECULE
ASD01810870
  28   29    0    0    0
SMALL
NO_CHARGES


@<TRIPOS>ATOM
   1 C1            -0.0180     1.4731     0.0101 C.2     
   2 C2             0.0021    -0.0041     0.0020 C.ar    
   3 C3             1.2189    -0.6888    -0.0133 C.ar    
   4 C4             1.2303    -2.0686    -0.0208 C.ar    
   5 C5             0.0388    -2.7736    -0.0138 C.ar    
   6 C6            -1.1699    -2.1010     0.0009 C.ar    
   7 C7            -1.1955    -0.7216     0.0154 C.ar    
   8 O8             1.0256     2.0947     0.0035 O.2     
   9 O9            -1.1936     2.1307     0.0193 O.3     
  10 I10            3.0543    -3.0989    -0.0438 I       
  11 C11            0.0587    -4.2804    -0.0226 C.3     
  12 C12           -0.6262    -4.9127     1.2005 C.3     
  13 C13           -1.2051    -5.9611     0.2359 C.3     
  14 C14           -1.0589    -4.9063    -0.8735 C.3     
  15 C15           -1.1373     3.5816     0.0269 C.3     
  16 H16            2.1490    -0.1398    -0.0195 H       
  17 H17           -2.0958    -2.6570     0.0057 H       
  18 H18           -2.1399    -0.1979     0.0321 H       
  19 H19            1.0477    -4.6895    -0.2292 H       
  20 H20            0.0730    -5.3268     1.9270 H       
  21 H21           -1.3827    -4.2738     1.6562 H       
  22 H22           -0.5623    -6.8307     0.0991 H       
  23 H23           -2.2398    -6.2281     0.4509 H       
  24 H24           -1.9337    -4.2656    -0.9849 H       
  25 H25           -0.7091    -5.3151    -1.8214 H       
  26 H26           -0.6140     3.9296    -0.8637 H       
  27 H27           -2.1501     3.9845     0.0339 H       
  28 H28           -0.6055     3.9199     0.9162 H       
@<TRIPOS>BOND
   1    1    2 1
   2    1    8 2
   3    1    9 1
   4    2    3 ar
   5    2    7 ar
   6    3    4 ar
   7    3   16 1
   8    4    5 ar
   9    4   10 1
  10    5    6 ar
  11    5   11 1
  12    6    7 ar
  13    6   17 1
  14    7   18 1
  15    9   15 1
  16   11   12 1
  17   11   14 1
  18   11   19 1
  19   12   13 1
  20   12   20 1
  21   12   21 1
  22   13   14 1
  23   13   22 1
  24   13   23 1
  25   14   24 1
  26   14   25 1
  27   15   26 1
  28   15   27 1
  29   15   28 1

#	End of record

