#	Name: ASD03091286
#	Creating user name:	WinNT
#	Creation time:	15. 06. 2019 20:30

#	Modifying user name:	WinNT
#	Modification time:	15. 06. 2019 20:30

#	Program:	/corina/corina34_cracker 3.40 0067  02.08.2006

@<TRIPOS>MOLECULE
ASD03091286
  39   41    0    0    0
SMALL
NO_CHARGES


@<TRIPOS>ATOM
   1 C1             0.1769     0.8231    -0.3044 C.ar    
   2 C2             0.2761    -0.5471    -0.4578 C.ar    
   3 C3             1.5195    -1.1447    -0.5449 C.ar    
   4 C4             2.6639    -0.3720    -0.4790 C.ar    
   5 C5             2.5647     0.9983    -0.3265 C.ar    
   6 C6             1.3213     1.5957    -0.2380 C.ar    
   7 C7             3.8122     1.8406    -0.2536 C.3     
   8 C8             3.9979     2.9218    -1.3201 C.3     
   9 C9             3.6478     3.3161     0.1162 C.3     
  10 C10            2.9192     3.0630    -2.3630 C.2     
  11 N11            3.0314     3.9992    -3.3261 N.am    
  12 O12            1.9501     2.3343    -2.3356 O.2     
  13 C13            1.9828     4.1364    -4.3399 C.3     
  14 C14            2.5778     4.6988    -5.6051 C.ar    
  15 C15            3.7046     5.4970    -5.5439 C.ar    
  16 C16            4.2509     6.0125    -6.7042 C.ar    
  17 C17            3.6707     5.7308    -7.9273 C.ar    
  18 C18            2.5440     4.9335    -7.9909 C.ar    
  19 C19            1.9995     4.4114    -6.8296 C.ar    
  20 C20            0.8953     5.0809    -3.8241 C.3     
  21 F21            0.9014     3.6268    -6.8911 F       
  22 H22           -0.7946     1.2905    -0.2409 H       
  23 H23           -0.6180    -1.1508    -0.5093 H       
  24 H24            1.5970    -2.2153    -0.6640 H       
  25 H25            3.6354    -0.8389    -0.5463 H       
  26 H26            1.2438     2.6663    -0.1185 H       
  27 H27            4.7052     1.3282     0.1043 H       
  28 H28            5.0130     3.1210    -1.6635 H       
  29 H29            2.6374     3.6776     0.3068 H       
  30 H30            4.4327     3.7747     0.7177 H       
  31 H31            3.8065     4.5820    -3.3480 H       
  32 H32            1.5470     3.1589    -4.5465 H       
  33 H33            4.1582     5.7182    -4.5891 H       
  34 H34            5.1313     6.6361    -6.6555 H       
  35 H35            4.0982     6.1344    -8.8333 H       
  36 H36            2.0909     4.7138    -8.9463 H       
  37 H37            0.4649     4.6742    -2.9090 H       
  38 H38            1.3310     6.0584    -3.6175 H       
  39 H39            0.1151     5.1831    -4.5784 H       
@<TRIPOS>BOND
   1    1    2 ar
   2    1    6 ar
   3    1   22 1
   4    2    3 ar
   5    2   23 1
   6    3    4 ar
   7    3   24 1
   8    4    5 ar
   9    4   25 1
  10    5    6 ar
  11    5    7 1
  12    6   26 1
  13    7    8 1
  14    7    9 1
  15    7   27 1
  16    8    9 1
  17    8   10 1
  18    8   28 1
  19    9   29 1
  20    9   30 1
  21   10   11 am
  22   10   12 2
  23   11   13 1
  24   11   31 1
  25   13   14 1
  26   13   20 1
  27   13   32 1
  28   14   15 ar
  29   14   19 ar
  30   15   16 ar
  31   15   33 1
  32   16   17 ar
  33   16   34 1
  34   17   18 ar
  35   17   35 1
  36   18   19 ar
  37   18   36 1
  38   19   21 1
  39   20   37 1
  40   20   38 1
  41   20   39 1

#	End of record

