#	Name: ASD01180001
#	Creating user name:	WinNT
#	Creation time:	15. 06. 2019 19:06

#	Modifying user name:	WinNT
#	Modification time:	15. 06. 2019 19:06

#	Program:	/corina/corina34_cracker 3.40 0067  02.08.2006

@<TRIPOS>MOLECULE
ASD01180001
  36   38    0    0    0
SMALL
NO_CHARGES


@<TRIPOS>ATOM
   1 N1             0.0571     1.4066     0.2153 N.ar    
   2 C2             0.0382     0.1239     0.4975 C.ar    
   3 C3             1.1740    -0.6655     0.3055 C.ar    
   4 N4             2.2843    -0.1414    -0.1611 N.ar    
   5 C5             2.3290     1.1624    -0.4564 C.ar    
   6 C6             3.5019     1.7531    -0.9566 C.ar    
   7 C7             3.5168     3.0833    -1.2478 C.ar    
   8 C8             2.3812     3.8725    -1.0560 C.ar    
   9 C9             1.2277     3.3335    -0.5730 C.ar    
  10 C10            1.1755     1.9641    -0.2615 C.ar    
  11 S11           -1.4361    -0.6086     1.1255 S.o2    
  12 O12           -1.0254    -1.6343     2.0191 O.2     
  13 O13           -2.2845     0.4642     1.5109 O.2     
  14 S14           -3.3868    -0.7032    -1.2709 S.3     
  15 C15           -2.2340    -1.4140    -0.2234 C.2     
  16 N16           -2.0459    -2.6413    -0.5883 N.2     
  17 N17           -2.7124    -3.0414    -1.5849 N.2     
  18 C18           -3.5090    -2.1792    -2.1299 C.2     
  19 C19           -4.3964    -2.4324    -3.3213 C.3     
  20 C20            1.1254    -2.1347     0.6377 C.3     
  21 C21            1.8758    -2.9254    -0.4359 C.3     
  22 C22            1.7830    -2.3718     1.9987 C.3     
  23 Cl23           2.4406     5.5649    -1.4381 Cl      
  24 Cl24           4.9683     3.8080    -1.8655 Cl      
  25 H25            4.3880     1.1547    -1.1092 H       
  26 H26            0.3568     3.9559    -0.4292 H       
  27 H27           -3.8546    -2.1910    -4.2358 H       
  28 H28           -4.6900    -3.4820    -3.3392 H       
  29 H29           -5.2866    -1.8073    -3.2507 H       
  30 H30            0.0873    -2.4650     0.6732 H       
  31 H31            2.9139    -2.5951    -0.4714 H       
  32 H32            1.8407    -3.9880    -0.1956 H       
  33 H33            1.4074    -2.7565    -1.4055 H       
  34 H34            1.2484    -1.8085     2.7636 H       
  35 H35            1.7478    -3.4344     2.2390 H       
  36 H36            2.8211    -2.0414     1.9632 H       
@<TRIPOS>BOND
   1    1    2 ar
   2    1   10 ar
   3    2    3 ar
   4    2   11 1
   5    3    4 ar
   6    3   20 1
   7    4    5 ar
   8    5    6 ar
   9    5   10 ar
  10    6    7 ar
  11    6   25 1
  12    7    8 ar
  13    7   24 1
  14    8    9 ar
  15    8   23 1
  16    9   10 ar
  17    9   26 1
  18   11   12 2
  19   11   13 2
  20   11   15 1
  21   14   15 1
  22   14   18 1
  23   15   16 2
  24   16   17 1
  25   17   18 2
  26   18   19 1
  27   19   27 1
  28   19   28 1
  29   19   29 1
  30   20   21 1
  31   20   22 1
  32   20   30 1
  33   21   31 1
  34   21   32 1
  35   21   33 1
  36   22   34 1
  37   22   35 1
  38   22   36 1

#	End of record

