#	Name: ASD09116264
#	Creating user name:	WinNT
#	Creation time:	15. 06. 2019 21:21

#	Modifying user name:	WinNT
#	Modification time:	15. 06. 2019 21:21

#	Program:	/corina/corina34_cracker 3.40 0067  02.08.2006

@<TRIPOS>MOLECULE
ASD09116264
  77   83    0    0    0
SMALL
NO_CHARGES


@<TRIPOS>ATOM
   1 N1            -0.4970     2.6406    -0.5174 N.pl3   
   2 N2            -0.6835     1.3675    -1.0797 N.2     
   3 C3             0.8403     2.8469    -0.4737 C.2     
   4 N4             1.4310     1.7814    -0.9715 N.2     
   5 C5             0.5083     0.8850    -1.3387 C.2     
   6 N6             1.4737     3.9778     0.0083 N.pl3   
   7 C7             2.8684     4.0145     0.0947 C.ar    
   8 C8             3.5428     5.2212    -0.0418 C.ar    
   9 C9             4.9207     5.2539     0.0446 C.ar    
  10 C10            5.6291     4.0871     0.2663 C.ar    
  11 C11            4.9609     2.8840     0.4022 C.ar    
  12 C12            3.5826     2.8451     0.3230 C.ar    
  13 C13           -1.4933     3.5215    -0.0930 C.ar    
  14 N14           -1.2245     4.4286     0.8341 N.ar    
  15 N15           -2.1080     5.2561     1.2666 N.ar    
  16 C16           -3.3491     5.2487     0.8074 C.ar    
  17 C17           -3.7191     4.3400    -0.1882 C.ar    
  18 C18           -2.7726     3.4500    -0.6502 C.ar    
  19 C19           -4.3831     6.1646     1.3425 C.ar    
  20 C20           -5.6167     5.6377     1.7282 C.ar    
  21 C21           -5.8438     4.1532     1.6436 C.3     
  22 C22           -6.0989     3.7100     0.2055 C.3     
  23 C23           -5.1110     4.3755    -0.7489 C.3     
  24 C24           -4.1422     7.5291     1.4596 C.ar    
  25 C25           -5.1354     8.3599     1.9408 C.ar    
  26 C26           -6.3638     7.8367     2.3019 C.ar    
  27 C27           -6.6046     6.4778     2.1953 C.ar    
  28 N28            0.7713    -0.3618    -1.9051 N.pl3   
  29 C29            7.1327     4.1266     0.3595 C.3     
  30 N30            7.5312     4.3444     1.7565 N.3     
  31 C31            8.9772     4.1539     1.9271 C.3     
  32 C32            9.3332     4.2446     3.4127 C.3     
  33 C33            8.9132     5.6154     3.9504 C.3     
  34 C34            7.4123     5.8085     3.7168 C.3     
  35 C35            7.1120     5.6724     2.2224 C.3     
  36 N36            9.1992     5.6869     5.3895 N.3     
  37 C37           10.6456     5.5631     5.6476 C.3     
  38 C38           11.0782     6.8166     6.4369 C.3     
  39 C39            9.7501     7.3042     7.0736 C.3     
  40 C40            8.7269     6.9661     5.9607 C.3     
  41 H41            0.9502     4.7456     0.2865 H       
  42 H42            2.9902     6.1327    -0.2156 H       
  43 H43            5.4457     6.1918    -0.0614 H       
  44 H44            5.5171     1.9745     0.5749 H       
  45 H45            3.0613     1.9053     0.4296 H       
  46 H46           -3.0134     2.7196    -1.4084 H       
  47 H47           -4.9639     3.6355     2.0255 H       
  48 H48           -6.7056     3.8888     2.2563 H       
  49 H49           -5.9887     2.6276     0.1387 H       
  50 H50           -7.1143     3.9849    -0.0800 H       
  51 H51           -5.4077     5.4125    -0.9061 H       
  52 H52           -5.1262     3.8505    -1.7040 H       
  53 H53           -3.1833     7.9372     1.1760 H       
  54 H54           -4.9523     9.4200     2.0356 H       
  55 H55           -7.1395     8.4922     2.6694 H       
  56 H56           -7.5663     6.0759     2.4781 H       
  57 H57            1.6872    -0.6395    -2.0626 H       
  58 H58            0.0382    -0.9514    -2.1417 H       
  59 H59            7.5435     3.1802     0.0078 H       
  60 H60            7.5137     4.9400    -0.2581 H       
  61 H61            9.2620     3.1737     1.5446 H       
  62 H62            9.5129     4.9278     1.3773 H       
  63 H63            8.8086     3.4622     3.9611 H       
  64 H64           10.4087     4.1187     3.5375 H       
  65 H65            9.4665     6.3964     3.4289 H       
  66 H66            6.8575     5.0507     4.2700 H       
  67 H67            7.1154     6.7999     4.0589 H       
  68 H68            7.6564     6.4392     1.6712 H       
  69 H69            6.0420     5.7952     2.0543 H       
  70 H70           10.8418     4.6676     6.2373 H       
  71 H71           11.1879     5.5140     4.7033 H       
  72 H72           11.8023     6.5553     7.2085 H       
  73 H73           11.4845     7.5734     5.7658 H       
  74 H74            9.5295     6.7526     7.9874 H       
  75 H75            9.7793     8.3770     7.2643 H       
  76 H76            8.7250     7.7446     5.1977 H       
  77 H77            7.7301     6.8472     6.3851 H       
@<TRIPOS>BOND
   1    1    2 1
   2    1    3 1
   3    1   13 1
   4    2    5 2
   5    3    4 2
   6    3    6 1
   7    4    5 1
   8    5   28 1
   9    6    7 1
  10    6   41 1
  11    7    8 ar
  12    7   12 ar
  13    8    9 ar
  14    8   42 1
  15    9   10 ar
  16    9   43 1
  17   10   11 ar
  18   10   29 1
  19   11   12 ar
  20   11   44 1
  21   12   45 1
  22   13   14 ar
  23   13   18 ar
  24   14   15 ar
  25   15   16 ar
  26   16   17 ar
  27   16   19 1
  28   17   18 ar
  29   17   23 1
  30   18   46 1
  31   19   20 ar
  32   19   24 ar
  33   20   21 1
  34   20   27 ar
  35   21   22 1
  36   21   47 1
  37   21   48 1
  38   22   23 1
  39   22   49 1
  40   22   50 1
  41   23   51 1
  42   23   52 1
  43   24   25 ar
  44   24   53 1
  45   25   26 ar
  46   25   54 1
  47   26   27 ar
  48   26   55 1
  49   27   56 1
  50   28   57 1
  51   28   58 1
  52   29   30 1
  53   29   59 1
  54   29   60 1
  55   30   31 1
  56   30   35 1
  57   31   32 1
  58   31   61 1
  59   31   62 1
  60   32   33 1
  61   32   63 1
  62   32   64 1
  63   33   34 1
  64   33   36 1
  65   33   65 1
  66   34   35 1
  67   34   66 1
  68   34   67 1
  69   35   68 1
  70   35   69 1
  71   36   37 1
  72   36   40 1
  73   37   38 1
  74   37   70 1
  75   37   71 1
  76   38   39 1
  77   38   72 1
  78   38   73 1
  79   39   40 1
  80   39   74 1
  81   39   75 1
  82   40   76 1
  83   40   77 1

#	End of record

