#	Name: ASD01882911
#	Creating user name:	WinNT
#	Creation time:	15. 06. 2019 19:45

#	Modifying user name:	WinNT
#	Modification time:	15. 06. 2019 19:45

#	Program:	/corina/corina34_cracker 3.40 0067  02.08.2006

@<TRIPOS>MOLECULE
ASD01882911
  23   22    0    0    0
SMALL
NO_CHARGES


@<TRIPOS>ATOM
   1 C1            -0.0173     1.4278     0.0099 C.2     
   2 C2             0.0021    -0.0041     0.0020 C.1     
   3 C3             0.0180    -1.1779    -0.0044 C.1     
   4 C4             0.0380    -2.6498    -0.0125 C.3     
   5 C5            -1.3974    -3.1794    -0.0017 C.3     
   6 O6             1.0268     2.0497     0.0033 O.2     
   7 O7            -1.1938     2.0858     0.0190 O.3     
   8 C8             0.7541    -3.1432    -1.2713 C.3     
   9 O9             0.7291    -3.1232     1.1452 O.3     
  10 C10           -1.1375     3.5367     0.0267 C.3     
  11 C11           -2.5591     4.1022     0.0365 C.3     
  12 H12           -1.9246    -2.8183    -0.8847 H       
  13 H13           -1.3826    -4.2692    -0.0077 H       
  14 H14           -1.9076    -2.8278     0.8951 H       
  15 H15            1.7767    -2.7659    -1.2791 H       
  16 H16            0.7689    -4.2331    -1.2773 H       
  17 H17            0.2269    -2.7821    -2.1544 H       
  18 H18            1.6473    -2.8257     1.2041 H       
  19 H19           -0.6057     3.8750     0.9160 H       
  20 H20           -0.6141     3.8847    -0.8639 H       
  21 H21           -3.0908     3.7639    -0.8528 H       
  22 H22           -3.0824     3.7543     0.9271 H       
  23 H23           -2.5168     5.1914     0.0422 H       
@<TRIPOS>BOND
   1    1    2 1
   2    1    6 2
   3    1    7 1
   4    2    3 3
   5    3    4 1
   6    4    5 1
   7    4    8 1
   8    4    9 1
   9    5   12 1
  10    5   13 1
  11    5   14 1
  12    7   10 1
  13    8   15 1
  14    8   16 1
  15    8   17 1
  16    9   18 1
  17   10   11 1
  18   10   19 1
  19   10   20 1
  20   11   21 1
  21   11   22 1
  22   11   23 1

#	End of record

