#	Name: ASD02198437
#	Creating user name:	WinNT
#	Creation time:	15. 06. 2019 20:19

#	Modifying user name:	WinNT
#	Modification time:	15. 06. 2019 20:19

#	Program:	/corina/corina34_cracker 3.40 0067  02.08.2006

@<TRIPOS>MOLECULE
ASD02198437
  52   56    0    0    0
SMALL
NO_CHARGES


@<TRIPOS>ATOM
   1 C1             0.6719     1.2863    -0.3663 C.ar    
   2 S2             0.1987    -0.3748    -0.0173 S.o2    
   3 N3            -0.1064    -0.4664     1.6077 N.am    
   4 C4            -1.1073     0.3214     2.1746 C.ar    
   5 C5            -0.9452     0.8524     3.4737 C.ar    
   6 C6            -1.9779     1.6498     4.0244 C.ar    
   7 C7            -3.1403     1.8987     3.2762 C.ar    
   8 C8            -3.2691     1.3733     2.0267 C.ar    
   9 C9            -2.2597     0.5929     1.4701 C.ar    
  10 N10            0.1608     0.6130     4.1826 N.ar    
  11 C11            0.3169     1.1027     5.3888 C.ar    
  12 C12           -0.6591     1.8940     5.9899 C.ar    
  13 C13           -1.8145     2.1781     5.3189 C.ar    
  14 O14           -1.0453    -0.5835    -0.6716 O.2     
  15 O15            1.3467    -1.1776    -0.2560 O.2     
  16 C16            2.0041     1.6517    -0.3036 C.ar    
  17 C17            2.3783     2.9529    -0.5761 C.ar    
  18 C18            1.4149     3.8948    -0.9138 C.ar    
  19 C19            0.0776     3.5242    -0.9763 C.ar    
  20 C20           -0.2892     2.2201    -0.7077 C.ar    
  21 N21            1.7901     5.2128    -1.1897 N.pl3   
  22 C22            3.0227     5.4759    -1.7505 C.ar    
  23 N23            3.8171     4.4893    -2.1380 N.ar    
  24 C24            3.4688     6.8094    -1.9322 C.ar    
  25 C25            4.7433     7.0179    -2.5137 C.ar    
  26 N26            5.4743     5.9504    -2.8678 N.ar    
  27 C27            5.0081     4.7297    -2.6808 C.ar    
  28 C28            2.6910     7.9091    -1.5565 C.ar    
  29 C29            3.1704     9.1713    -1.7551 C.ar    
  30 C30            4.4219     9.3784    -2.3265 C.ar    
  31 C31            5.2049     8.3272    -2.7033 C.ar    
  32 S32            6.0079     3.3612    -3.1627 S.3     
  33 C33            7.4555     4.2395    -3.8026 C.3     
  34 H34            0.4112    -1.0683     2.1652 H       
  35 H35           -3.9310     2.5058     3.6916 H       
  36 H36           -4.1658     1.5686     1.4573 H       
  37 H37           -2.3855     0.1873     0.4771 H       
  38 H38            1.2259     0.8865     5.9305 H       
  39 H39           -0.5024     2.2828     6.9853 H       
  40 H40           -2.5818     2.7902     5.7695 H       
  41 H41            2.7527     0.9189    -0.0410 H       
  42 H42            3.4189     3.2378    -0.5263 H       
  43 H43           -0.6740     4.2541    -1.2386 H       
  44 H44           -1.3287     1.9312    -0.7565 H       
  45 H45            1.1839     5.9423    -0.9869 H       
  46 H46            1.7177     7.7606    -1.1127 H       
  47 H47            2.5700    10.0209    -1.4651 H       
  48 H48            4.7789    10.3870    -2.4740 H       
  49 H49            6.1745     8.5029    -3.1452 H       
  50 H50            7.1544     4.8813    -4.6305 H       
  51 H51            7.8905     4.8485    -3.0102 H       
  52 H52            8.1933     3.5174    -4.1524 H       
@<TRIPOS>BOND
   1    1    2 1
   2    1   16 ar
   3    1   20 ar
   4    2    3 am
   5    2   14 2
   6    2   15 2
   7    3    4 1
   8    3   34 1
   9    4    5 ar
  10    4    9 ar
  11    5    6 ar
  12    5   10 ar
  13    6    7 ar
  14    6   13 ar
  15    7    8 ar
  16    7   35 1
  17    8    9 ar
  18    8   36 1
  19    9   37 1
  20   10   11 ar
  21   11   12 ar
  22   11   38 1
  23   12   13 ar
  24   12   39 1
  25   13   40 1
  26   16   17 ar
  27   16   41 1
  28   17   18 ar
  29   17   42 1
  30   18   19 ar
  31   18   21 1
  32   19   20 ar
  33   19   43 1
  34   20   44 1
  35   21   22 1
  36   21   45 1
  37   22   23 ar
  38   22   24 ar
  39   23   27 ar
  40   24   25 ar
  41   24   28 ar
  42   25   26 ar
  43   25   31 ar
  44   26   27 ar
  45   27   32 1
  46   28   29 ar
  47   28   46 1
  48   29   30 ar
  49   29   47 1
  50   30   31 ar
  51   30   48 1
  52   31   49 1
  53   32   33 1
  54   33   50 1
  55   33   51 1
  56   33   52 1

#	End of record

