#	Name: ASD04910137
#	Creating user name:	WinNT
#	Creation time:	15. 06. 2019 20:55

#	Modifying user name:	WinNT
#	Modification time:	15. 06. 2019 20:55

#	Program:	/corina/corina34_cracker 3.40 0067  02.08.2006

@<TRIPOS>MOLECULE
ASD04910137
  34   34    0    0    0
SMALL
NO_CHARGES


@<TRIPOS>ATOM
   1 C1            -0.0180     1.4730     0.0101 C.2     
   2 C2             0.0021    -0.0041     0.0020 C.ar    
   3 C3             1.2190    -0.6889    -0.0133 C.ar    
   4 C4             1.2304    -2.0681    -0.0203 C.ar    
   5 C5             0.0396    -2.7731    -0.0127 C.ar    
   6 C6            -1.1695    -2.1010     0.0020 C.ar    
   7 C7            -1.1954    -0.7216     0.0154 C.ar    
   8 O8             1.0256     2.0946     0.0035 O.2     
   9 O9            -1.1936     2.1307     0.0193 O.3     
  10 C10            2.5427    -2.8089    -0.0368 C.3     
  11 C11            0.0601    -4.2800    -0.0210 C.3     
  12 C12            0.2064    -4.7959     1.4120 C.3     
  13 C13            0.3524    -6.3188     1.3933 C.3     
  14 C14            0.4988    -6.8347     2.8262 C.3     
  15 O15           -1.1598    -4.7698    -0.5814 O.3     
  16 C16           -1.1373     3.5816     0.0269 C.3     
  17 H17            2.1490    -0.1399    -0.0199 H       
  18 H18           -2.0952    -2.6573     0.0071 H       
  19 H19           -2.1399    -0.1982     0.0318 H       
  20 H20            2.8690    -2.9927     0.9868 H       
  21 H21            2.4165    -3.7600    -0.5542 H       
  22 H22            3.2916    -2.2100    -0.5550 H       
  23 H23            0.9011    -4.6287    -0.6204 H       
  24 H24            1.0904    -4.3518     1.8695 H       
  25 H25           -0.6773    -4.5227     1.9885 H       
  26 H26           -0.5316    -6.7630     0.9357 H       
  27 H27            1.2361    -6.5921     0.8167 H       
  28 H28            1.3828    -6.3906     3.2838 H       
  29 H29           -0.3850    -6.5615     3.4028 H       
  30 H30            0.6028    -7.9197     2.8129 H       
  31 H31           -1.9519    -4.4979    -0.0979 H       
  32 H32           -0.6140     3.9295    -0.8637 H       
  33 H33           -2.1501     3.9844     0.0339 H       
  34 H34           -0.6055     3.9199     0.9162 H       
@<TRIPOS>BOND
   1    1    2 1
   2    1    8 2
   3    1    9 1
   4    2    3 ar
   5    2    7 ar
   6    3    4 ar
   7    3   17 1
   8    4    5 ar
   9    4   10 1
  10    5    6 ar
  11    5   11 1
  12    6    7 ar
  13    6   18 1
  14    7   19 1
  15    9   16 1
  16   10   20 1
  17   10   21 1
  18   10   22 1
  19   11   12 1
  20   11   15 1
  21   11   23 1
  22   12   13 1
  23   12   24 1
  24   12   25 1
  25   13   14 1
  26   13   26 1
  27   13   27 1
  28   14   28 1
  29   14   29 1
  30   14   30 1
  31   15   31 1
  32   16   32 1
  33   16   33 1
  34   16   34 1

#	End of record

