#	Name: ASD00450007
#	Creating user name:	WinNT
#	Creation time:	15. 06. 2019 18:35

#	Modifying user name:	WinNT
#	Modification time:	15. 06. 2019 18:35

#	Program:	/corina/corina34_cracker 3.40 0067  02.08.2006

@<TRIPOS>MOLECULE
ASD00450007
  67   71    0    0    0
SMALL
NO_CHARGES


@<TRIPOS>ATOM
   1 C1             0.1137     1.4701    -0.0647 C.2     
   2 N2             0.1745     0.3760    -0.8693 N.am    
   3 C3             1.3519    -0.2558    -1.0847 C.2     
   4 C4             2.5441     0.2886    -0.4178 C.ar    
   5 C5             2.3845     1.4293     0.4001 C.ar    
   6 N6             1.1484     1.9726     0.5366 N.2     
   7 C7             3.8027    -0.2875    -0.5732 C.ar    
   8 C8             4.8888     0.2696     0.0806 C.ar    
   9 C9             4.7253     1.3958     0.8873 C.ar    
  10 C10            3.4972     1.9707     1.0480 C.ar    
  11 N11            6.1566    -0.3003    -0.0683 N.pl3   
  12 C12            7.2784     0.5195    -0.2128 C.ar    
  13 C13            7.1218     1.8890    -0.3742 C.ar    
  14 C14            8.2389     2.6999    -0.5170 C.ar    
  15 C15            9.5098     2.1388    -0.4980 C.ar    
  16 C16            9.6624     0.7748    -0.3376 C.ar    
  17 C17            8.5530    -0.0346    -0.1894 C.ar    
  18 C18            8.7242    -1.5216    -0.0143 C.3     
  19 N19            8.0856     4.0803    -0.6803 N.am    
  20 C20            8.9732     4.9275    -0.1229 C.2     
  21 C21            8.7788     6.3790    -0.2432 C.2     
  22 O22            9.9355     4.4905     0.4801 O.2     
  23 N23            7.7621     7.0005    -0.8795 N.2     
  24 C24            7.9139     8.2891    -0.7832 C.2     
  25 N25            9.0422     8.5629    -0.0762 N.pl3   
  26 C26            9.6033     7.3664     0.2814 C.2     
  27 C27           10.8414     7.1658     1.0594 C.ar    
  28 C28           10.8739     6.2276     2.0934 C.ar    
  29 C29           12.0319     6.0412     2.8191 C.ar    
  30 C30           13.1657     6.7841     2.5249 C.ar    
  31 C31           13.1403     7.7222     1.4943 C.ar    
  32 C32           11.9854     7.9101     0.7594 C.ar    
  33 C33           -1.0453    -0.1239    -1.5084 C.3     
  34 O34            1.4212    -1.2367    -1.8023 O.2     
  35 O35           14.3040     6.5972     3.2436 O.3     
  36 O36           14.2539     8.4488     1.2087 O.3     
  37 C37           14.1564     9.3921     0.1397 C.3     
  38 C38           14.2603     5.6204     4.2857 C.3     
  39 C39            6.9822     9.3199    -1.3667 C.3     
  40 F40            5.7744     8.7094    -1.7212 F       
  41 F41            6.7389    10.3188    -0.4180 F       
  42 F42            7.5684     9.8884    -2.5026 F       
  43 H43           -0.8441     1.9484     0.0780 H       
  44 H44            3.9301    -1.1599    -1.1970 H       
  45 H45            5.5816     1.8188     1.3916 H       
  46 H46            3.3863     2.8427     1.6756 H       
  47 H47            6.2574    -1.2651    -0.0712 H       
  48 H48            6.1328     2.3227    -0.3890 H       
  49 H49           10.3795     2.7695    -0.6091 H       
  50 H50           10.6514     0.3413    -0.3236 H       
  51 H51            8.8102    -1.7549     1.0470 H       
  52 H52            7.8597    -2.0385    -0.4310 H       
  53 H53            9.6265    -1.8470    -0.5321 H       
  54 H54            7.3404     4.4279    -1.1948 H       
  55 H55            9.3848     9.4445     0.1390 H       
  56 H56            9.9923     5.6483     2.3250 H       
  57 H57           12.0558     5.3154     3.6184 H       
  58 H58           11.9645     8.6364    -0.0396 H       
  59 H59           -1.8889     0.5043    -1.2225 H       
  60 H60           -0.9244    -0.0991    -2.5914 H       
  61 H61           -1.2301    -1.1489    -1.1869 H       
  62 H62           13.9023     8.8706    -0.7831 H       
  63 H63           13.3809    10.1228     0.3695 H       
  64 H64           15.1117     9.9026     0.0173 H       
  65 H65           15.2312     5.5714     4.7787 H       
  66 H66           13.4973     5.8987     5.0127 H       
  67 H67           14.0190     4.6462     3.8606 H       
@<TRIPOS>BOND
   1    1    2 1
   2    1    6 2
   3    1   43 1
   4    2    3 am
   5    2   33 1
   6    3    4 1
   7    3   34 2
   8    4    5 ar
   9    4    7 ar
  10    5    6 1
  11    5   10 ar
  12    7    8 ar
  13    7   44 1
  14    8    9 ar
  15    8   11 1
  16    9   10 ar
  17    9   45 1
  18   10   46 1
  19   11   12 1
  20   11   47 1
  21   12   13 ar
  22   12   17 ar
  23   13   14 ar
  24   13   48 1
  25   14   15 ar
  26   14   19 1
  27   15   16 ar
  28   15   49 1
  29   16   17 ar
  30   16   50 1
  31   17   18 1
  32   18   51 1
  33   18   52 1
  34   18   53 1
  35   19   20 am
  36   19   54 1
  37   20   21 1
  38   20   22 2
  39   21   23 1
  40   21   26 2
  41   23   24 2
  42   24   25 1
  43   24   39 1
  44   25   26 1
  45   25   55 1
  46   26   27 1
  47   27   28 ar
  48   27   32 ar
  49   28   29 ar
  50   28   56 1
  51   29   30 ar
  52   29   57 1
  53   30   31 ar
  54   30   35 1
  55   31   32 ar
  56   31   36 1
  57   32   58 1
  58   33   59 1
  59   33   60 1
  60   33   61 1
  61   35   38 1
  62   36   37 1
  63   37   62 1
  64   37   63 1
  65   37   64 1
  66   38   65 1
  67   38   66 1
  68   38   67 1
  69   39   40 1
  70   39   41 1
  71   39   42 1

#	End of record

