#	Name: ASD01900833
#	Creating user name:	WinNT
#	Creation time:	15. 06. 2019 19:52

#	Modifying user name:	WinNT
#	Modification time:	15. 06. 2019 19:52

#	Program:	/corina/corina34_cracker 3.40 0067  02.08.2006

@<TRIPOS>MOLECULE
ASD01900833
  29   30    0    0    0
SMALL
NO_CHARGES


@<TRIPOS>ATOM
   1 N1            -0.0189     1.3108     0.0342 N.ar    
   2 C2             0.0869     0.0004     0.0709 C.ar    
   3 C3            -0.7589    -0.8031    -0.6767 C.ar    
   4 C4            -1.7285    -0.2135    -1.4729 C.ar    
   5 C5            -1.8170     1.1693    -1.4921 C.ar    
   6 C6            -0.9332     1.9148    -0.7147 C.ar    
   7 C7            -1.0147     3.3939    -0.7241 C.2     
   8 O8            -1.8499     3.9521    -1.4080 O.2     
   9 N9            -0.1625     4.1205     0.0257 N.am    
  10 C10           -0.1742     5.5163    -0.0569 C.ar    
  11 C11           -1.3725     6.1914    -0.2448 C.ar    
  12 C12           -1.3800     7.5748    -0.3257 C.ar    
  13 C13           -0.1903     8.2820    -0.2188 C.ar    
  14 C14            1.0015     7.6084    -0.0319 C.ar    
  15 C15            1.0126     6.2295     0.0546 C.ar    
  16 O16           -2.5514     8.2387    -0.5100 O.3     
  17 C17           -2.4844     9.6642    -0.5841 C.3     
  18 F18           -1.9498    10.1684     0.6064 F       
  19 F19           -1.6679    10.0376    -1.6570 F       
  20 H20            0.8436    -0.4557     0.6920 H       
  21 H21           -0.6634    -1.8782    -0.6397 H       
  22 H22           -2.3995    -0.8181    -2.0651 H       
  23 H23           -2.5603     1.6622    -2.1013 H       
  24 H24            0.4589     3.6752     0.6228 H       
  25 H25           -2.2971     5.6395    -0.3281 H       
  26 H26           -0.1963     9.3601    -0.2823 H       
  27 H27            1.9258     8.1610     0.0506 H       
  28 H28            1.9451     5.7057     0.2049 H       
  29 H29           -3.4861    10.0678    -0.7322 H       
@<TRIPOS>BOND
   1    1    2 ar
   2    1    6 ar
   3    2    3 ar
   4    2   20 1
   5    3    4 ar
   6    3   21 1
   7    4    5 ar
   8    4   22 1
   9    5    6 ar
  10    5   23 1
  11    6    7 1
  12    7    8 2
  13    7    9 am
  14    9   10 1
  15    9   24 1
  16   10   11 ar
  17   10   15 ar
  18   11   12 ar
  19   11   25 1
  20   12   13 ar
  21   12   16 1
  22   13   14 ar
  23   13   26 1
  24   14   15 ar
  25   14   27 1
  26   15   28 1
  27   16   17 1
  28   17   18 1
  29   17   19 1
  30   17   29 1

#	End of record

