#	Name: ASD01911969
#	Creating user name:	WinNT
#	Creation time:	15. 06. 2019 19:58

#	Modifying user name:	WinNT
#	Modification time:	15. 06. 2019 19:58

#	Program:	/corina/corina34_cracker 3.40 0067  02.08.2006

@<TRIPOS>MOLECULE
ASD01911969
  39   41    0    0    0
SMALL
NO_CHARGES


@<TRIPOS>ATOM
   1 C1             0.7737     1.1508    -0.1316 C.ar    
   2 C2             0.5657    -0.2265    -0.1282 C.ar    
   3 C3             1.6745    -1.0609    -0.2495 C.ar    
   4 N4             2.8756    -0.5191    -0.3626 N.ar    
   5 C5             3.0306     0.7898    -0.3615 C.ar    
   6 N6             2.0074     1.6129    -0.2489 N.ar    
   7 N7            -0.7213    -0.7572    -0.0059 N.pl3   
   8 C8            -0.9091    -2.1430    -0.0047 C.ar    
   9 C9            -1.3088    -4.1885    -1.2007 C.ar    
  10 C10           -1.2831    -4.8905    -0.0105 C.ar    
  11 C11           -1.0754    -4.2208     1.1887 C.ar    
  12 C12           -0.8882    -2.8459     1.1915 C.ar    
  13 N13           -1.0497    -4.9333     2.3930 N.am    
  14 C14           -1.5529    -4.3799     3.5142 C.2     
  15 C15           -1.6205    -5.1695     4.7620 C.ar    
  16 O16           -1.9513    -3.2315     3.4992 O.2     
  17 C17           -2.1410    -4.5993     5.9247 C.ar    
  18 C18           -1.1227    -2.8181    -1.2023 C.ar    
  19 F19           -1.1488    -2.1345    -2.3673 F       
  20 C20           -1.8738     0.1383     0.1210 C.3     
  21 C21           -2.2023    -5.3408     7.0867 C.ar    
  22 C22           -1.7488    -6.6472     7.1024 C.ar    
  23 C23           -1.2305    -7.2207     5.9520 C.ar    
  24 C24           -1.1692    -6.4902     4.7808 C.ar    
  25 F25           -0.7893    -8.4974     5.9745 F       
  26 H26           -0.0604     1.8313    -0.0441 H       
  27 H27            1.5551    -2.1343    -0.2508 H       
  28 H28            4.0253     1.1999    -0.4553 H       
  29 H29           -1.4701    -4.7116    -2.1317 H       
  30 H30           -1.4291    -5.9605    -0.0124 H       
  31 H31           -0.7263    -2.3238     2.1230 H       
  32 H32           -0.6697    -5.8253     2.4208 H       
  33 H33           -2.4951    -3.5790     5.9149 H       
  34 H34           -2.2622     0.3733    -0.8700 H       
  35 H35           -2.6506    -0.3505     0.7091 H       
  36 H36           -1.5662     1.0581     0.6183 H       
  37 H37           -2.6051    -4.8997     7.9865 H       
  38 H38           -1.7984    -7.2228     8.0148 H       
  39 H39           -0.7656    -6.9373     3.8843 H       
@<TRIPOS>BOND
   1    1    2 ar
   2    1    6 ar
   3    1   26 1
   4    2    3 ar
   5    2    7 1
   6    3    4 ar
   7    3   27 1
   8    4    5 ar
   9    5    6 ar
  10    5   28 1
  11    7    8 1
  12    7   20 1
  13    8   18 ar
  14    8   12 ar
  15    9   10 ar
  16    9   18 ar
  17    9   29 1
  18   10   11 ar
  19   10   30 1
  20   11   12 ar
  21   11   13 1
  22   12   31 1
  23   13   14 am
  24   13   32 1
  25   14   15 1
  26   14   16 2
  27   15   17 ar
  28   15   24 ar
  29   17   21 ar
  30   17   33 1
  31   18   19 1
  32   20   34 1
  33   20   35 1
  34   20   36 1
  35   21   22 ar
  36   21   37 1
  37   22   23 ar
  38   22   38 1
  39   23   24 ar
  40   23   25 1
  41   24   39 1

#	End of record

