#	Name: ASD05430549
#	Creating user name:	WinNT
#	Creation time:	15. 06. 2019 21:00

#	Modifying user name:	WinNT
#	Modification time:	15. 06. 2019 21:00

#	Program:	/corina/corina34_cracker 3.40 0067  02.08.2006

@<TRIPOS>MOLECULE
ASD05430549
  49   48    0    0    0
SMALL
NO_CHARGES


@<TRIPOS>ATOM
   1 C1            -0.0187     1.5291     0.0104 C.3     
   2 C2             0.0021    -0.0041     0.0020 C.3     
   3 C3             0.4940    -0.4710    -1.3669 C.3     
   4 C4             1.7753     0.2275    -1.7346 C.ar    
   5 C5             2.2031     1.3783    -1.1131 C.ar    
   6 C6             1.4235     2.0314    -0.0006 C.3     
   7 C7             2.5516    -0.3241    -2.7497 C.ar    
   8 C8             3.7318     0.3053    -3.1054 C.ar    
   9 C9             4.0983     1.4606    -2.4405 C.ar    
  10 N10            3.3400     1.9526    -1.4853 N.ar    
  11 H11           -0.5412     1.8939    -0.8739 H       
  12 H12           -0.5241     1.8843     0.9085 H       
  13 H13            0.6766    -0.3664     0.7778 H       
  14 H14           -1.0031    -0.3859     0.1809 H       
  15 H15            0.6662    -1.5469    -1.3392 H       
  16 H16           -0.2650    -0.2481    -2.1168 H       
  17 H17            1.4268     3.1117    -0.1454 H       
  18 H18            1.8936     1.7958     0.9542 H       
  19 H19            2.2385    -1.2280    -3.2510 H       
  20 H20            4.3558    -0.0993    -3.8886 H       
  21 H21            5.0159     1.9635    -2.7077 H       
  22 C22           11.0177    11.2383     8.1044 C.3     
  23 C23           11.0385     9.7084     8.0960 C.3     
  24 C24           11.7546     9.2150     6.8372 C.3     
  25 C25           11.7785     9.2016     9.3356 C.3     
  26 H26           12.0403    11.6155     8.0967 H       
  27 H27           10.4906    11.5993     7.2214 H       
  28 H28           10.5076    11.5898     9.0012 H       
  29 H29           10.0159     9.3311     8.1038 H       
  30 H30           12.7772     9.5923     6.8295 H       
  31 H31           11.7694     8.1251     6.8312 H       
  32 H32           11.2274     9.5761     5.9542 H       
  33 H33           11.2683     9.5531    10.2323 H       
  34 H34           11.7933     8.1117     9.3296 H       
  35 H35           12.8011     9.5789     9.3278 H       
  36 C36           18.8029    19.7421    17.3826 C.3     
  37 C37           18.8237    18.2123    17.3742 C.3     
  38 C38           19.5398    17.7188    16.1154 C.3     
  39 C39           19.5637    17.7054    18.6137 C.3     
  40 H40           19.8255    20.1194    17.3749 H       
  41 H41           18.2757    20.1032    16.4996 H       
  42 H42           18.2927    20.0936    18.2794 H       
  43 H43           17.8011    17.8350    17.3819 H       
  44 H44           20.5624    18.0961    16.1077 H       
  45 H45           19.5546    16.6290    16.1094 H       
  46 H46           19.0126    18.0799    15.2323 H       
  47 H47           19.0535    18.0569    19.5105 H       
  48 H48           19.5785    16.6155    18.6077 H       
  49 H49           20.5863    18.0827    18.6060 H       
@<TRIPOS>BOND
   1    1    2 1
   2    1    6 1
   3    1   11 1
   4    1   12 1
   5    2    3 1
   6    2   13 1
   7    2   14 1
   8    3    4 1
   9    3   15 1
  10    3   16 1
  11    4    5 ar
  12    4    7 ar
  13    5    6 1
  14    5   10 ar
  15    6   17 1
  16    6   18 1
  17    7    8 ar
  18    7   19 1
  19    8    9 ar
  20    8   20 1
  21    9   10 ar
  22    9   21 1
  23   22   23 1
  24   22   26 1
  25   22   27 1
  26   22   28 1
  27   23   24 1
  28   23   25 1
  29   23   29 1
  30   24   30 1
  31   24   31 1
  32   24   32 1
  33   25   33 1
  34   25   34 1
  35   25   35 1
  36   36   37 1
  37   36   40 1
  38   36   41 1
  39   36   42 1
  40   37   38 1
  41   37   39 1
  42   37   43 1
  43   38   44 1
  44   38   45 1
  45   38   46 1
  46   39   47 1
  47   39   48 1
  48   39   49 1

#	End of record

