#	Name: ASD06020073
#	Creating user name:	WinNT
#	Creation time:	15. 06. 2019 21:04

#	Modifying user name:	WinNT
#	Modification time:	15. 06. 2019 21:04

#	Program:	/corina/corina34_cracker 3.40 0067  02.08.2006

@<TRIPOS>MOLECULE
ASD06020073
  49   53    0    0    0
SMALL
NO_CHARGES


@<TRIPOS>ATOM
   1 C1            -2.4280     1.3549     0.0273 C.ar    
   2 C2            -2.4011    -0.0435     0.0122 C.ar    
   3 C3            -3.6051    -0.7571     0.0263 C.ar    
   4 C4            -4.8036     0.0005     0.0557 C.ar    
   5 C5            -4.7384     1.3581     0.0687 C.ar    
   6 N6            -3.5810     2.0005     0.0547 N.ar    
   7 S7            -1.0732    -1.1981    -0.0236 S.3     
   8 C8            -2.2200    -2.5319    -0.0170 C.2     
   9 N9            -3.4312    -2.0793     0.0095 N.2     
  10 N10           -1.2339     2.0704     0.0191 N.pl3   
  11 C11           -2.4249     5.4143    -0.3614 C.ar    
  12 N12           -2.4012     4.1001    -0.2692 N.ar    
  13 C13           -1.2550     3.4538    -0.0779 C.ar    
  14 C14           -0.0729     4.1902     0.0241 C.ar    
  15 C15           -0.1465     5.5654    -0.0787 C.ar    
  16 N16           -1.3272     6.1374    -0.2694 N.ar    
  17 C17            1.1002     6.4057     0.0245 C.3     
  18 O18            2.1614     8.2959    -3.5580 O.3     
  19 C19            3.2322     7.9100    -2.6921 C.3     
  20 C20            2.6854     7.6926    -1.2787 C.3     
  21 N21            1.6148     6.6860    -1.3226 N.3     
  22 C22            0.5331     7.1148    -2.2211 C.3     
  23 C23            1.1015     7.3381    -3.6250 C.3     
  24 C24           -1.8523    -3.9634    -0.0392 C.ar    
  25 C25           -2.8473    -4.9435    -0.0315 C.ar    
  26 C26           -2.4964    -6.2790    -0.0529 C.ar    
  27 C27           -1.1632    -6.6469    -0.0814 C.ar    
  28 C28           -0.1724    -5.6817    -0.0892 C.ar    
  29 C29           -0.5085    -4.3422    -0.0739 C.ar    
  30 Cl30           0.7364    -3.1325    -0.0905 Cl      
  31 Cl31          -4.5210    -4.4841     0.0054 Cl      
  32 H32           -5.7617    -0.4978     0.0673 H       
  33 H33           -5.6555     1.9280     0.0907 H       
  34 H34           -0.3870     1.6015     0.0813 H       
  35 H35           -3.3698     5.9124    -0.5213 H       
  36 H36            0.8750     3.6968     0.1798 H       
  37 H37            0.8651     7.3444     0.5262 H       
  38 H38            1.8551     5.8669     0.5970 H       
  39 H39            3.6790     6.9847    -3.0558 H       
  40 H40            3.9866     8.6965    -2.6734 H       
  41 H41            3.4870     7.3431    -0.6281 H       
  42 H42            2.2868     8.6314    -0.8942 H       
  43 H43           -0.2364     6.3437    -2.2583 H       
  44 H44            0.1000     8.0444    -1.8517 H       
  45 H45            0.3149     7.7109    -4.2811 H       
  46 H46            1.4863     6.3961    -4.0159 H       
  47 H47           -3.2646    -7.0380    -0.0470 H       
  48 H48           -0.8946    -7.6929    -0.0973 H       
  49 H49            0.8664    -5.9762    -0.1112 H       
@<TRIPOS>BOND
   1    1    2 ar
   2    1    6 ar
   3    1   10 1
   4    2    3 ar
   5    2    7 1
   6    3    4 ar
   7    3    9 1
   8    4    5 ar
   9    4   32 1
  10    5    6 ar
  11    5   33 1
  12    7    8 1
  13    8    9 2
  14    8   24 1
  15   10   13 1
  16   10   34 1
  17   11   12 ar
  18   11   16 ar
  19   11   35 1
  20   12   13 ar
  21   13   14 ar
  22   14   15 ar
  23   14   36 1
  24   15   16 ar
  25   15   17 1
  26   17   21 1
  27   17   37 1
  28   17   38 1
  29   18   19 1
  30   18   23 1
  31   19   20 1
  32   19   39 1
  33   19   40 1
  34   20   21 1
  35   20   41 1
  36   20   42 1
  37   21   22 1
  38   22   23 1
  39   22   43 1
  40   22   44 1
  41   23   45 1
  42   23   46 1
  43   24   25 ar
  44   24   29 ar
  45   25   26 ar
  46   25   31 1
  47   26   27 ar
  48   26   47 1
  49   27   28 ar
  50   27   48 1
  51   28   29 ar
  52   28   49 1
  53   29   30 1

#	End of record

