#	Name: ASD01883803
#	Creating user name:	WinNT
#	Creation time:	15. 06. 2019 19:47

#	Modifying user name:	WinNT
#	Modification time:	15. 06. 2019 19:47

#	Program:	/corina/corina34_cracker 3.40 0067  02.08.2006

@<TRIPOS>MOLECULE
ASD01883803
  54   57    0    0    0
SMALL
NO_CHARGES


@<TRIPOS>ATOM
   1 C1            -0.0168     1.3900     0.0097 C.ar    
   2 C2             0.0021    -0.0041     0.0020 C.ar    
   3 C3             1.2115    -0.6763    -0.0131 C.ar    
   4 C4             2.3974     0.0438    -0.0205 C.ar    
   5 C5             2.3879     1.4508    -0.0129 C.ar    
   6 C6             1.1392     2.1064     0.0025 C.ar    
   7 S7             4.0950    -0.4387    -0.0393 S.3     
   8 N8             4.7403     1.1264    -0.0371 N.am    
   9 C9             3.7355     2.0019    -0.0228 C.2     
  10 O10            3.9349     3.2046    -0.0186 O.2     
  11 O11           -1.1634    -0.7005     0.0098 O.3     
  12 C12           -2.3733     0.0598     0.0259 C.3     
  13 C13           -3.5546    -0.8760     0.0326 C.ar    
  14 C14           -4.0826    -1.3101     1.2314 C.ar    
  15 C15           -5.1751    -2.1750     1.2361 C.ar    
  16 C16           -5.7284    -2.5968     0.0291 C.ar    
  17 C17           -5.1923    -2.1563    -1.1643 C.ar    
  18 C18           -4.1112    -1.2938    -1.1630 C.ar    
  19 C19           -5.7469    -2.6456     2.5221 C.ar    
  20 C20           -6.8369    -3.5084     2.5246 C.ar    
  21 C21           -7.3695    -3.9468     3.7369 C.ar    
  22 C22           -6.8038    -3.5158     4.9406 C.ar    
  23 C23           -5.7201    -2.6578     4.9282 C.ar    
  24 C24           -5.1875    -2.2269     3.7296 C.ar    
  25 C25            6.1661     1.4626    -0.0481 C.3     
  26 Cl26          -7.4633    -4.0581     6.4521 Cl      
  27 C27            6.6206     1.7099    -1.4879 C.3     
  28 C28            5.9091     2.9458    -2.0422 C.3     
  29 C29            8.1333     1.9381    -1.5132 C.3     
  30 C30           -8.5275    -4.8630     3.7490 C.2     
  31 O31           -8.9898    -5.2437     4.8059 O.2     
  32 O32           -9.0712    -5.2767     2.5879 O.3     
  33 H33           -0.9640     1.9089     0.0170 H       
  34 H34            1.2322    -1.7561    -0.0187 H       
  35 H35            1.1007     3.1857     0.0083 H       
  36 H36           -2.3987     0.6834     0.9195 H       
  37 H37           -2.4164     0.6929    -0.8603 H       
  38 H38           -3.6496    -0.9803     2.1642 H       
  39 H39           -6.5750    -3.2673     0.0270 H       
  40 H40           -5.6202    -2.4829    -2.1006 H       
  41 H41           -3.6950    -0.9513    -2.0990 H       
  42 H42           -7.2698    -3.8377     1.5916 H       
  43 H43           -5.2856    -2.3267     5.8598 H       
  44 H44           -4.3408    -1.5566     3.7268 H       
  45 H45            6.3320     2.3620     0.5448 H       
  46 H46            6.7373     0.6370     0.3765 H       
  47 H47            6.3737     0.8431    -2.1009 H       
  48 H48            6.2329     3.1220    -3.0679 H       
  49 H49            4.8315     2.7832    -2.0242 H       
  50 H50            6.1560     3.8126    -1.4292 H       
  51 H51            8.6402     1.0577    -1.1183 H       
  52 H52            8.4571     2.1143    -2.5389 H       
  53 H53            8.3802     2.8050    -0.9002 H       
  54 H54           -9.8278    -5.8761     2.6464 H       
@<TRIPOS>BOND
   1    1    2 ar
   2    1    6 ar
   3    1   33 1
   4    2    3 ar
   5    2   11 1
   6    3    4 ar
   7    3   34 1
   8    4    5 ar
   9    4    7 1
  10    5    6 ar
  11    5    9 1
  12    6   35 1
  13    7    8 1
  14    8    9 am
  15    8   25 1
  16    9   10 2
  17   11   12 1
  18   12   13 1
  19   12   36 1
  20   12   37 1
  21   13   14 ar
  22   13   18 ar
  23   14   15 ar
  24   14   38 1
  25   15   16 ar
  26   15   19 1
  27   16   17 ar
  28   16   39 1
  29   17   18 ar
  30   17   40 1
  31   18   41 1
  32   19   20 ar
  33   19   24 ar
  34   20   21 ar
  35   20   42 1
  36   21   22 ar
  37   21   30 1
  38   22   23 ar
  39   22   26 1
  40   23   24 ar
  41   23   43 1
  42   24   44 1
  43   25   27 1
  44   25   45 1
  45   25   46 1
  46   27   28 1
  47   27   29 1
  48   27   47 1
  49   28   48 1
  50   28   49 1
  51   28   50 1
  52   29   51 1
  53   29   52 1
  54   29   53 1
  55   30   31 2
  56   30   32 1
  57   32   54 1

#	End of record

