#	Name: ASD07930603
#	Creating user name:	WinNT
#	Creation time:	15. 06. 2019 21:12

#	Modifying user name:	WinNT
#	Modification time:	15. 06. 2019 21:12

#	Program:	/corina/corina34_cracker 3.40 0067  02.08.2006

@<TRIPOS>MOLECULE
ASD07930603
  41   44    0    0    0
SMALL
NO_CHARGES


@<TRIPOS>ATOM
   1 S1            -0.0218     1.7568     0.0117 S.3     
   2 C2             0.0021    -0.0041     0.0020 C.2     
   3 N3             1.0039    -0.6777    -0.4129 N.2     
   4 C4             2.2686    -0.2447    -0.9571 C.3     
   5 C5             2.4022     1.2744    -1.1331 C.3     
   6 C6             1.7645     2.0590    -0.0037 C.3     
   7 O7             1.9952     0.3585    -3.2710 O.3     
   8 C8             2.3528    -0.7412    -2.4245 C.3     
   9 C9             1.6712     1.5094    -2.4705 C.3     
  10 N10           -1.1039    -0.6814     0.4608 N.pl3   
  11 C11            2.1831     2.7861    -3.1406 C.3     
  12 C12            3.4090    -0.8012    -0.1442 C.ar    
  13 C13            4.7172    -0.5188    -0.5044 C.ar    
  14 C14            5.7697    -1.0266     0.2385 C.ar    
  15 C15            5.5190    -1.8186     1.3434 C.ar    
  16 C16            4.2029    -2.1048     1.7087 C.ar    
  17 C17            3.1484    -1.5859     0.9601 C.ar    
  18 C18            3.4306    -4.4881     5.0314 C.ar    
  19 N19            4.2913    -4.9122     4.1274 N.ar    
  20 C20            4.5656    -4.1867     3.0569 C.ar    
  21 C21            3.9273    -2.9546     2.8932 C.ar    
  22 C22            3.0227    -2.5448     3.8760 C.ar    
  23 N23            2.8068    -3.3325     4.9154 N.ar    
  24 F24            6.5458    -2.3148     2.0678 F       
  25 F25            4.9663     0.2541    -1.5841 F       
  26 H26            3.4538     1.5459    -1.2250 H       
  27 H27            1.9515     3.1229    -0.1499 H       
  28 H28            2.1946     1.7422     0.9464 H       
  29 H29            3.3693    -1.0652    -2.6480 H       
  30 H30            1.6576    -1.5668    -2.5766 H       
  31 H31            0.5948     1.5692    -2.3096 H       
  32 H32           -1.8759    -0.1890     0.7809 H       
  33 H33           -1.1118    -1.6513     0.4642 H       
  34 H34            3.2520     2.6925    -3.3320 H       
  35 H35            1.6571     2.9376    -4.0833 H       
  36 H36            2.0046     3.6377    -2.4841 H       
  37 H37            6.7875    -0.8040    -0.0458 H       
  38 H38            2.1282    -1.8015     1.2415 H       
  39 H39            3.2268    -5.1086     5.8916 H       
  40 H40            5.2722    -4.5406     2.3208 H       
  41 H41            2.5082    -1.5993     3.7880 H       
@<TRIPOS>BOND
   1    1    2 1
   2    1    6 1
   3    2    3 2
   4    2   10 1
   5    3    4 1
   6    4    8 1
   7    4   12 1
   8    4    5 1
   9    5    6 1
  10    5    9 1
  11    5   26 1
  12    6   27 1
  13    6   28 1
  14    7    8 1
  15    7    9 1
  16    8   29 1
  17    8   30 1
  18    9   11 1
  19    9   31 1
  20   10   32 1
  21   10   33 1
  22   11   34 1
  23   11   35 1
  24   11   36 1
  25   12   13 ar
  26   12   17 ar
  27   13   14 ar
  28   13   25 1
  29   14   15 ar
  30   14   37 1
  31   15   16 ar
  32   15   24 1
  33   16   17 ar
  34   16   21 1
  35   17   38 1
  36   18   19 ar
  37   18   23 ar
  38   18   39 1
  39   19   20 ar
  40   20   21 ar
  41   20   40 1
  42   21   22 ar
  43   22   23 ar
  44   22   41 1

#	End of record

