#	Name: ASD01884001
#	Creating user name:	WinNT
#	Creation time:	15. 06. 2019 19:47

#	Modifying user name:	WinNT
#	Modification time:	15. 06. 2019 19:47

#	Program:	/corina/corina34_cracker 3.40 0067  02.08.2006

@<TRIPOS>MOLECULE
ASD01884001
  51   54    0    0    0
SMALL
NO_CHARGES


@<TRIPOS>ATOM
   1 Cl1            0.0000     0.0000     0.0000 Cl      
   2 H2             0.0000     1.3700     0.0000 H       
   3 C3            13.8952    18.0708     6.0939 C.3     
   4 N4            13.9150    16.6060     6.0859 N.am    
   5 C5            12.7169    15.9068     6.0879 C.2     
   6 C6            11.4263    16.3471     6.0960 C.2     
   7 C7            10.5864    15.2211     6.0938 C.2     
   8 N8            11.3417    14.1432     6.0846 N.2     
   9 N9            12.6850    14.5454     6.0807 N.pl3   
  10 C10           13.8655    13.8098     6.0717 C.ar    
  11 C11           13.8423    12.4249     6.0637 C.ar    
  12 C12           15.0412    11.7170     6.0544 C.ar    
  13 C13           16.2614    12.3966     6.0530 C.ar    
  14 C14           16.2920    13.7628     6.0613 C.ar    
  15 C15           15.0984    14.4844     6.0702 C.ar    
  16 C16           15.0979    15.9581     6.0711 C.2     
  17 O17           16.1445    16.5784     6.0645 O.2     
  18 C18           15.0225    10.2338     6.0463 C.ar    
  19 C19           13.8142     9.5310     6.0420 C.ar    
  20 C20           13.8423     8.1513     6.0341 C.ar    
  21 C21           12.5468     7.3813     6.0289 C.3     
  22 N22           14.9879     7.4974     6.0305 N.ar    
  23 C23           16.1497     8.1222     6.0343 C.ar    
  24 C24           17.4253     7.3197     6.0298 C.3     
  25 C25           16.2126     9.5008     6.0368 C.ar    
  26 C26            9.1015    15.2430     6.1011 C.2     
  27 C27            8.2863    16.3914     6.1053 C.2     
  28 N28            7.0384    16.0035     6.1114 N.2     
  29 N29            7.0077    14.6037     6.1113 N.pl3   
  30 C30            5.8025    13.7709     6.1164 C.3     
  31 C31            8.2792    14.1545     6.0990 C.2     
  32 H32           14.9178    18.4481     6.0862 H       
  33 H33           13.3680    18.4319     5.2109 H       
  34 H34           13.3850    18.4224     6.9907 H       
  35 H35           11.1065    17.3786     6.1029 H       
  36 H36           12.9000    11.8973     6.0651 H       
  37 H37           17.1863    11.8391     6.0457 H       
  38 H38           17.2386    14.2828     6.0602 H       
  39 H39           12.8725    10.0599     6.0453 H       
  40 H40           12.2351     7.2017     5.0000 H       
  41 H41           12.6890     6.4277     6.5373 H       
  42 H42           11.7795     7.9578     6.5457 H       
  43 H43           17.7330     7.1322     5.0011 H       
  44 H44           18.2066     7.8766     6.5470 H       
  45 H45           17.2588     6.3700     6.5381 H       
  46 H46           17.1673    10.0058     6.0353 H       
  47 H47            8.6322    17.4145     6.1043 H       
  48 H48            5.4989    13.5649     5.0900 H       
  49 H49            6.0119    12.8319     6.6288 H       
  50 H50            5.0000    14.2963     6.6342 H       
  51 H51            8.5903    13.1203     6.0912 H       
@<TRIPOS>BOND
   1    1    2 1
   2    3    4 1
   3    3   32 1
   4    3   33 1
   5    3   34 1
   6    4   16 am
   7    4    5 1
   8    5    9 1
   9    5    6 2
  10    6    7 1
  11    6   35 1
  12    7    8 2
  13    7   26 1
  14    8    9 1
  15    9   10 1
  16   10   15 ar
  17   10   11 ar
  18   11   12 ar
  19   11   36 1
  20   12   13 ar
  21   12   18 1
  22   13   14 ar
  23   13   37 1
  24   14   15 ar
  25   14   38 1
  26   15   16 1
  27   16   17 2
  28   18   25 ar
  29   18   19 ar
  30   19   20 ar
  31   19   39 1
  32   20   21 1
  33   20   22 ar
  34   21   40 1
  35   21   41 1
  36   21   42 1
  37   22   23 ar
  38   23   24 1
  39   23   25 ar
  40   24   43 1
  41   24   44 1
  42   24   45 1
  43   25   46 1
  44   26   31 2
  45   26   27 1
  46   27   28 2
  47   27   47 1
  48   28   29 1
  49   29   30 1
  50   29   31 1
  51   30   48 1
  52   30   49 1
  53   30   50 1
  54   31   51 1

#	End of record

