#	Name: ASD00600003
#	Creating user name:	WinNT
#	Creation time:	15. 06. 2019 18:36

#	Modifying user name:	WinNT
#	Modification time:	15. 06. 2019 18:36

#	Program:	/corina/corina34_cracker 3.40 0067  02.08.2006

@<TRIPOS>MOLECULE
ASD00600003
  80   84    0    0    0
SMALL
NO_CHARGES


@<TRIPOS>ATOM
   1 C1             0.5604     2.2197     1.2507 C.3     
   2 C2             0.6943     0.7038     1.0656 C.3     
   3 C3            -0.6834     0.1148     0.7564 C.3     
   4 N4            -1.6012     0.3988     1.8671 N.3     
   5 C5            -1.7672     1.8444     2.0656 C.3     
   6 C6            -0.4153     2.4750     2.4052 C.3     
   7 N7             1.8654     2.7761     1.5948 N.am    
   8 C8             2.3053     3.9378     1.0979 C.2     
   9 C9             1.4908     4.7583     0.1412 C.3     
  10 N10            0.4356     3.9840    -0.5018 N.am    
  11 C11            0.0003     2.8196    -0.0077 C.2     
  12 C12            2.7263     2.0340     2.5191 C.3     
  13 C13            3.5844     1.1119     1.7573 C.1     
  14 C14            4.2687     0.3765     1.1497 C.1     
  15 C15            5.1267    -0.5455     0.3879 C.3     
  16 O16            3.3990     4.3415     1.4322 O.2     
  17 O17           -0.8787     2.2269    -0.5967 O.2     
  18 C18            0.8551     5.9219     0.9047 C.3     
  19 C19            0.0206     6.7686    -0.0584 C.3     
  20 O20            1.8822     6.7304     1.4823 O.3     
  21 C21           -0.6151     7.9321     0.7052 C.3     
  22 C22           -1.4496     8.7788    -0.2580 C.3     
  23 C23           -0.5488     9.3276    -1.3662 C.3     
  24 C24            0.0869     8.1640    -2.1298 C.3     
  25 C25            0.9214     7.3174    -1.1667 C.3     
  26 C26           -2.8993    -0.2563     1.6581 C.3     
  27 C27           -3.7234    -0.1510     2.9154 C.2     
  28 C28           -4.5790     0.8506     3.2249 C.2     
  29 N29           -5.1181     0.5726     4.4334 N.pl3   
  30 N30           -4.5745    -0.6394     4.8786 N.2     
  31 C31           -3.7435    -1.0748     3.9662 C.2     
  32 C32           -2.9390    -2.3470     4.0391 C.3     
  33 C33           -4.8775     2.0590     2.3752 C.3     
  34 C34           -6.0544     1.3584     5.1197 C.ar    
  35 C35           -7.1094     1.9428     4.4320 C.ar    
  36 C36           -8.0304     2.7165     5.1108 C.ar    
  37 C37           -7.9024     2.9093     6.4741 C.ar    
  38 C38           -6.8527     2.3286     7.1619 C.ar    
  39 C39           -5.9318     1.5491     6.4894 C.ar    
  40 H40            1.3737     0.4959     0.2390 H       
  41 H41            1.0847     0.2577     1.9803 H       
  42 H42           -1.0720     0.5615    -0.1588 H       
  43 H43           -0.5958    -0.9637     0.6247 H       
  44 H44           -2.1579     2.2935     1.1525 H       
  45 H45           -2.4655     2.0205     2.8838 H       
  46 H46           -0.0238     2.0281     3.3191 H       
  47 H47           -0.5391     3.5485     2.5475 H       
  48 H48            2.1504     5.1612    -0.6274 H       
  49 H49            0.0351     4.3254    -1.3167 H       
  50 H50            3.3495     2.7335     3.0763 H       
  51 H51            2.1084     1.4651     3.2138 H       
  52 H52            5.7672    -1.0977     1.0756 H       
  53 H53            4.5036    -1.2451    -0.1693 H       
  54 H54            5.7447     0.0234    -0.3068 H       
  55 H55            0.2134     5.5309     1.6943 H       
  56 H56           -0.7628     6.1519    -0.4989 H       
  57 H57            2.4921     7.1123     0.8363 H       
  58 H58           -1.2568     7.5412     1.4947 H       
  59 H59            0.1683     8.5488     1.1457 H       
  60 H60           -2.2330     8.1621    -0.6985 H       
  61 H61           -1.9025     9.6078     0.2860 H       
  62 H62           -1.1433     9.9308    -2.0524 H       
  63 H63            0.2346     9.9443    -0.9257 H       
  64 H64           -0.6965     7.5474    -2.5703 H       
  65 H65            0.7286     8.5550    -2.9193 H       
  66 H66            1.7048     7.9340    -0.7261 H       
  67 H67            1.3743     6.4884    -1.7106 H       
  68 H68           -3.4248     0.2320     0.8373 H       
  69 H69           -2.7411    -1.3068     1.4143 H       
  70 H70           -3.5122    -3.1648     3.6024 H       
  71 H71           -2.0079    -2.2203     3.4867 H       
  72 H72           -2.7151    -2.5760     5.0810 H       
  73 H73           -5.7757     1.8755     1.7855 H       
  74 H74           -5.0355     2.9250     3.0179 H       
  75 H75           -4.0373     2.2503     1.7077 H       
  76 H76           -7.2097     1.7928     3.3671 H       
  77 H77           -8.8511     3.1717     4.5763 H       
  78 H78           -8.6236     3.5150     7.0028 H       
  79 H79           -6.7554     2.4810     8.2266 H       
  80 H80           -5.1122     1.0958     7.0271 H       
@<TRIPOS>BOND
   1    1    2 1
   2    1    7 1
   3    1    6 1
   4    1   11 1
   5    2    3 1
   6    2   40 1
   7    2   41 1
   8    3    4 1
   9    3   42 1
  10    3   43 1
  11    4    5 1
  12    4   26 1
  13    5    6 1
  14    5   44 1
  15    5   45 1
  16    6   46 1
  17    6   47 1
  18    7    8 am
  19    7   12 1
  20    8    9 1
  21    8   16 2
  22    9   10 1
  23    9   18 1
  24    9   48 1
  25   10   11 am
  26   10   49 1
  27   11   17 2
  28   12   13 1
  29   12   50 1
  30   12   51 1
  31   13   14 3
  32   14   15 1
  33   15   52 1
  34   15   53 1
  35   15   54 1
  36   18   19 1
  37   18   20 1
  38   18   55 1
  39   19   21 1
  40   19   25 1
  41   19   56 1
  42   20   57 1
  43   21   22 1
  44   21   58 1
  45   21   59 1
  46   22   23 1
  47   22   60 1
  48   22   61 1
  49   23   24 1
  50   23   62 1
  51   23   63 1
  52   24   25 1
  53   24   64 1
  54   24   65 1
  55   25   66 1
  56   25   67 1
  57   26   27 1
  58   26   68 1
  59   26   69 1
  60   27   28 2
  61   27   31 1
  62   28   29 1
  63   28   33 1
  64   29   30 1
  65   29   34 1
  66   30   31 2
  67   31   32 1
  68   32   70 1
  69   32   71 1
  70   32   72 1
  71   33   73 1
  72   33   74 1
  73   33   75 1
  74   34   35 ar
  75   34   39 ar
  76   35   36 ar
  77   35   76 1
  78   36   37 ar
  79   36   77 1
  80   37   38 ar
  81   37   78 1
  82   38   39 ar
  83   38   79 1
  84   39   80 1

#	End of record

