#	Name: ASD01918569
#	Creating user name:	WinNT
#	Creation time:	15. 06. 2019 20:11

#	Modifying user name:	WinNT
#	Modification time:	15. 06. 2019 20:11

#	Program:	/corina/corina34_cracker 3.40 0067  02.08.2006

@<TRIPOS>MOLECULE
ASD01918569
  41   44    0    0    0
SMALL
NO_CHARGES


@<TRIPOS>ATOM
   1 C1             1.2848     1.7257     0.3508 C.3     
   2 C2             1.1176     0.2302     0.2702 C.2     
   3 C3             1.1123    -0.4335    -0.8875 C.2     
   4 S4             0.8947    -2.1457    -0.5346 S.3     
   5 C5             0.8316    -1.8033     1.1392 C.2     
   6 N6             0.6626    -2.7518     2.1395 N.am    
   7 C7             0.5334    -4.0543     1.8181 C.2     
   8 O8             0.5647    -4.3990     0.6523 O.2     
   9 C9             0.3540    -5.0609     2.8796 C.ar    
  10 C10            0.3115    -4.6748     4.2114 C.ar    
  11 C11            0.1429    -5.6165     5.2184 C.ar    
  12 C12            0.0148    -6.9421     4.9275 C.ar    
  13 C13            0.0521    -7.3769     3.5922 C.ar    
  14 C14           -0.0783    -8.7394     3.2637 C.ar    
  15 C15           -0.0332    -9.0918     1.9440 C.ar    
  16 C16            0.1377    -8.1126     0.9697 C.ar    
  17 N17            0.2587    -6.8433     1.2815 N.ar    
  18 C18            0.2173    -6.4335     2.5495 C.ar    
  19 C19            0.1013    -5.1656     6.6558 C.3     
  20 F20            1.2297    -4.3863     6.9329 F       
  21 C21           -1.1432    -4.3488     6.8903 C.ar    
  22 C22           -1.3071    -3.1144     6.2817 C.ar    
  23 N23           -2.4133    -2.4254     6.5111 N.ar    
  24 C24           -3.3514    -2.8995     7.3063 C.ar    
  25 N25           -3.2300    -4.0689     7.9019 N.ar    
  26 C26           -2.1541    -4.8164     7.7151 C.ar    
  27 N27            0.9702    -0.5298     1.3392 N.2     
  28 H28            2.3444     1.9692     0.4281 H       
  29 H29            0.8705     2.1865    -0.5460 H       
  30 H30            0.7603     2.1032     1.2286 H       
  31 H31            1.2220     0.0028    -1.8693 H       
  32 H32            0.6376    -2.4769     3.0694 H       
  33 H33            0.4110    -3.6304     4.4681 H       
  34 H34           -0.1152    -7.6591     5.7247 H       
  35 H35           -0.2099    -9.4857     4.0332 H       
  36 H36           -0.1297   -10.1286     1.6575 H       
  37 H37            0.1720    -8.4046    -0.0695 H       
  38 H38            0.0923    -6.0374     7.3100 H       
  39 H39           -0.5421    -2.7200     5.6293 H       
  40 H40           -4.2431    -2.3139     7.4746 H       
  41 H41           -2.0631    -5.7760     8.2022 H       
@<TRIPOS>BOND
   1    1    2 1
   2    1   28 1
   3    1   29 1
   4    1   30 1
   5    2   27 1
   6    2    3 2
   7    3    4 1
   8    3   31 1
   9    4    5 1
  10    5    6 1
  11    5   27 2
  12    6    7 am
  13    6   32 1
  14    7    8 2
  15    7    9 1
  16    9   18 ar
  17    9   10 ar
  18   10   11 ar
  19   10   33 1
  20   11   12 ar
  21   11   19 1
  22   12   13 ar
  23   12   34 1
  24   13   18 ar
  25   13   14 ar
  26   14   15 ar
  27   14   35 1
  28   15   16 ar
  29   15   36 1
  30   16   17 ar
  31   16   37 1
  32   17   18 ar
  33   19   20 1
  34   19   21 1
  35   19   38 1
  36   21   26 ar
  37   21   22 ar
  38   22   23 ar
  39   22   39 1
  40   23   24 ar
  41   24   25 ar
  42   24   40 1
  43   25   26 ar
  44   26   41 1

#	End of record

