#	Name: ASD01320020
#	Creating user name:	WinNT
#	Creation time:	15. 06. 2019 19:15

#	Modifying user name:	WinNT
#	Modification time:	15. 06. 2019 19:15

#	Program:	/corina/corina34_cracker 3.40 0067  02.08.2006

@<TRIPOS>MOLECULE
ASD01320020
  51   53    0    0    0
SMALL
NO_CHARGES


@<TRIPOS>ATOM
   1 C1             0.5487     1.2722    -0.3243 C.ar    
   2 C2             0.4093    -0.0780    -0.0884 C.ar    
   3 C3             1.5022    -0.9251    -0.2155 C.ar    
   4 C4             2.7473    -0.4121    -0.5834 C.ar    
   5 C5             2.8931     0.9424    -0.8219 C.ar    
   6 C6             1.7922     1.7934    -0.6931 C.ar    
   7 O7             1.3597    -2.2546     0.0189 O.3     
   8 C8             0.1342    -2.7095     0.3830 C.ar    
   9 C9            -0.8667    -2.8405    -0.5716 C.ar    
  10 C10           -2.1225    -3.3068    -0.2003 C.ar    
  11 C11           -2.3711    -3.6438     1.1450 C.ar    
  12 C12           -1.3562    -3.5067     2.0908 C.ar    
  13 C13           -0.1127    -3.0478     1.7084 C.ar    
  14 N14            3.8481    -1.2684    -0.7105 N.am    
  15 C15            5.0927    -0.8043    -0.4825 C.2     
  16 C16            6.2447    -1.7299    -0.5182 C.ar    
  17 O17            5.2680     0.3755    -0.2475 O.2     
  18 C18            7.5349    -1.2525    -0.2826 C.ar    
  19 C19            8.6057    -2.1219    -0.3169 C.ar    
  20 C20            8.4028    -3.4640    -0.5841 C.ar    
  21 C21            7.1261    -3.9438    -0.8186 C.ar    
  22 C22            6.0463    -3.0864    -0.7820 C.ar    
  23 C23            1.9419     3.2386    -0.9462 C.2     
  24 O24            3.0232     3.6904    -1.2670 O.2     
  25 O25            0.8795     4.0580    -0.8216 O.3     
  26 C26            1.1003     5.4686    -1.0860 C.3     
  27 C27           -3.1919    -3.4479    -1.2118 C.2     
  28 O28           -4.2697    -2.9172    -1.0340 O.2     
  29 O29           -2.9706    -4.1651    -2.3303 O.3     
  30 C30           -3.7006    -4.1395     1.5513 C.2     
  31 O31           -4.5479    -4.3650     0.7103 O.2     
  32 O32           -3.9747    -4.3420     2.8549 O.3     
  33 N33            9.9747    -1.6174    -0.0677 N.pl3   
  34 O34           10.1550    -0.4360     0.1673 O.2     
  35 O35           10.9210    -2.3837    -0.0977 O.2     
  36 H36           -0.3043     1.9276    -0.2285 H       
  37 H37           -0.5524    -0.4785     0.1964 H       
  38 H38            3.8555     1.3415    -1.1063 H       
  39 H39           -0.6694    -2.5800    -1.6010 H       
  40 H40           -1.5424    -3.7635     3.1231 H       
  41 H41            0.6709    -2.9434     2.4443 H       
  42 H42            3.7148    -2.1956    -0.9626 H       
  43 H43            7.6947    -0.2050    -0.0742 H       
  44 H44            9.2444    -4.1403    -0.6101 H       
  45 H45            6.9745    -4.9927    -1.0266 H       
  46 H46            5.0504    -3.4621    -0.9648 H       
  47 H47            0.1665     6.0142    -0.9502 H       
  48 H48            1.8504     5.8546    -0.3958 H       
  49 H49            1.4497     5.5958    -2.1106 H       
  50 H50           -3.6997    -4.2289    -2.9623 H       
  51 H51           -4.8590    -4.6673     3.0722 H       
@<TRIPOS>BOND
   1    1    2 ar
   2    1    6 ar
   3    1   36 1
   4    2    3 ar
   5    2   37 1
   6    3    4 ar
   7    3    7 1
   8    4    5 ar
   9    4   14 1
  10    5    6 ar
  11    5   38 1
  12    6   23 1
  13    7    8 1
  14    8    9 ar
  15    8   13 ar
  16    9   10 ar
  17    9   39 1
  18   10   11 ar
  19   10   27 1
  20   11   12 ar
  21   11   30 1
  22   12   13 ar
  23   12   40 1
  24   13   41 1
  25   14   15 am
  26   14   42 1
  27   15   16 1
  28   15   17 2
  29   16   18 ar
  30   16   22 ar
  31   18   19 ar
  32   18   43 1
  33   19   20 ar
  34   19   33 1
  35   20   21 ar
  36   20   44 1
  37   21   22 ar
  38   21   45 1
  39   22   46 1
  40   23   24 2
  41   23   25 1
  42   25   26 1
  43   26   47 1
  44   26   48 1
  45   26   49 1
  46   27   28 2
  47   27   29 1
  48   29   50 1
  49   30   31 2
  50   30   32 1
  51   32   51 1
  52   33   34 2
  53   33   35 2

#	End of record

