#	Name: ASD03110039
#	Creating user name:	WinNT
#	Creation time:	15. 06. 2019 20:33

#	Modifying user name:	WinNT
#	Modification time:	15. 06. 2019 20:33

#	Program:	/corina/corina34_cracker 3.40 0067  02.08.2006

@<TRIPOS>MOLECULE
ASD03110039
  24   25    0    0    0
SMALL
NO_CHARGES


@<TRIPOS>ATOM
   1 C1            -0.0166     1.3763     0.0096 C.ar    
   2 C2             0.0021    -0.0041     0.0020 C.ar    
   3 C3             1.2042    -0.6926    -0.0111 C.ar    
   4 C4             2.3996    -0.0052    -0.0167 C.ar    
   5 C5             2.3911     1.3917    -0.0130 C.ar    
   6 C6             1.1763     2.0862     0.0020 C.ar    
   7 C7             3.7013    -0.7625    -0.0209 C.3     
   8 C8             4.8302     0.1260    -0.5447 C.3     
   9 O9             4.8052     1.4016     0.1593 O.3     
  10 C10            3.6730     2.1267    -0.0302 C.2     
  11 O11            1.1645     3.4425     0.0087 O.3     
  12 O12            3.7121     3.3284    -0.2063 O.2     
  13 C13            6.1752    -0.5630    -0.3056 C.3     
  14 O14            4.0086    -1.1825     1.3100 O.3     
  15 H15           -0.9591     1.9037     0.0169 H       
  16 H16           -0.9286    -0.5520     0.0067 H       
  17 H17            1.2051    -1.7726    -0.0167 H       
  18 H18            3.6063    -1.6399    -0.6606 H       
  19 H19            4.6931     0.2970    -1.6124 H       
  20 H20            1.1525     3.8400    -0.8727 H       
  21 H21            6.1923    -1.5185    -0.8298 H       
  22 H22            6.9796     0.0707    -0.6792 H       
  23 H23            6.3121    -0.7321     0.7625 H       
  24 H24            3.3415    -1.7614     1.7036 H       
@<TRIPOS>BOND
   1    1    2 ar
   2    1    6 ar
   3    1   15 1
   4    2    3 ar
   5    2   16 1
   6    3    4 ar
   7    3   17 1
   8    4    5 ar
   9    4    7 1
  10    5    6 ar
  11    5   10 1
  12    6   11 1
  13    7    8 1
  14    7   14 1
  15    7   18 1
  16    8    9 1
  17    8   13 1
  18    8   19 1
  19    9   10 1
  20   10   12 2
  21   11   20 1
  22   13   21 1
  23   13   22 1
  24   13   23 1
  25   14   24 1

#	End of record

