#	Name: ASD03240114
#	Creating user name:	WinNT
#	Creation time:	15. 06. 2019 20:34

#	Modifying user name:	WinNT
#	Modification time:	15. 06. 2019 20:34

#	Program:	/corina/corina34_cracker 3.40 0067  02.08.2006

@<TRIPOS>MOLECULE
ASD03240114
  80   87    0    0    0
SMALL
NO_CHARGES


@<TRIPOS>ATOM
   1 C1            -0.0172     1.4160     0.0098 C.ar    
   2 C2             0.0021    -0.0041     0.0020 C.ar    
   3 C3             1.1946     2.1239     0.0021 C.ar    
   4 C4             2.3741     1.3944    -0.0132 C.ar    
   5 C5             2.3167    -0.0171    -0.0203 C.ar    
   6 N6             1.1631    -0.6586    -0.0127 N.ar    
   7 C7             3.5779    -0.7937    -0.0365 C.ar    
   8 C8             3.6833     2.0897    -0.0224 C.ar    
   9 C9             3.9288     3.1071    -0.9434 C.ar    
  10 C10            5.1495     3.7507    -0.9473 C.ar    
  11 C11            6.1285     3.3881    -0.0398 C.ar    
  12 C12            5.8908     2.3791     0.8761 C.ar    
  13 C13            4.6717     1.7325     0.8935 C.ar    
  14 C14            3.6626    -2.0059     0.6480 C.ar    
  15 C15            4.8400    -2.7251     0.6287 C.ar    
  16 C16            5.9351    -2.2460    -0.0678 C.ar    
  17 C17            5.8573    -1.0442    -0.7487 C.ar    
  18 C18            4.6837    -0.3185    -0.7413 C.ar    
  19 C19            7.2182    -3.0361    -0.0844 C.3     
  20 N20           -1.1677    -0.6568     0.0102 N.ar    
  21 C21           -2.3045     0.0121     0.0251 C.ar    
  22 N22           -2.3570     1.3427     0.0327 N.ar    
  23 C23           -1.2608     2.0729     0.0311 C.ar    
  24 N24           -3.4902    -0.6975     0.0327 N.3     
  25 N25            7.2075    -3.9635    -1.2236 N.3     
  26 C26            8.5273    -4.5785    -1.4140 C.3     
  27 C27            8.5189    -5.4227    -2.6905 C.3     
  28 C28            7.4426    -6.5055    -2.5734 C.3     
  29 C29            6.0854    -5.8406    -2.3272 C.3     
  30 C30            6.1644    -4.9844    -1.0613 C.3     
  31 C31            7.3887    -7.3023    -3.8514 C.2     
  32 N32            6.6908    -6.9804    -4.9660 N.pl3   
  33 C33            6.9361    -7.9832    -5.8648 C.2     
  34 N34            7.7429    -8.8375    -5.2755 N.2     
  35 N35            8.0115    -8.4267    -4.0872 N.2     
  36 C36            6.3954    -8.0864    -7.2379 C.ar    
  37 C37            6.7402    -9.1759    -8.0371 C.ar    
  38 C38            6.2257    -9.2586    -9.3195 C.ar    
  39 C39            5.3829    -8.2489    -9.7615 C.ar    
  40 C40            5.0824    -7.1963    -8.9156 C.ar    
  41 N41            5.5809    -7.1436    -7.6979 N.ar    
  42 C42           -4.6503     0.2124     0.0492 C.3     
  43 C43           -5.5209    -0.1346    -1.1768 C.3     
  44 C44           -5.1033    -1.5932    -1.5005 C.3     
  45 C45           -3.5931    -1.5700    -1.1563 C.3     
  46 F46           -6.8803    -0.0696    -0.8525 F       
  47 F47           -5.2257     0.7140    -2.2492 F       
  48 H48            1.2083     3.2038     0.0074 H       
  49 H49            3.1653     3.3907    -1.6526 H       
  50 H50            5.3410     4.5388    -1.6605 H       
  51 H51            7.0824     3.8947    -0.0465 H       
  52 H52            6.6591     2.0997     1.5818 H       
  53 H53            4.4872     0.9448     1.6090 H       
  54 H54            2.8084    -2.3808     1.1924 H       
  55 H55            4.9069    -3.6637     1.1587 H       
  56 H56            6.7156    -0.6753    -1.2907 H       
  57 H57            4.6241     0.6195    -1.2732 H       
  58 H58            8.0635    -2.3545    -0.1788 H       
  59 H59            7.3090    -3.6012     0.8433 H       
  60 H60           -1.3157     3.1515     0.0377 H       
  61 H61            9.2829    -3.7976    -1.5000 H       
  62 H62            8.7583    -5.2146    -0.5595 H       
  63 H63            8.3015    -4.7848    -3.5472 H       
  64 H64            9.4939    -5.8915    -2.8232 H       
  65 H65            7.6806    -7.1670    -1.7404 H       
  66 H66            5.8298    -5.2093    -3.1782 H       
  67 H67            5.3219    -6.6081    -2.2004 H       
  68 H68            6.4065    -5.6185    -0.2084 H       
  69 H69            5.2038    -4.4982    -0.8911 H       
  70 H70            6.1314    -6.1994    -5.1001 H       
  71 H71            7.3996    -9.9442    -7.6610 H       
  72 H72            6.4751   -10.0902    -9.9618 H       
  73 H73            4.9655    -8.2842   -10.7570 H       
  74 H74            4.4266    -6.4091    -9.2572 H       
  75 H75           -5.2236     0.0656     0.9646 H       
  76 H76           -4.3117     1.2463    -0.0171 H       
  77 H77           -5.6372    -2.3019    -0.8673 H       
  78 H78           -5.2600    -1.8193    -2.5552 H       
  79 H79           -3.0215    -1.1515    -1.9847 H       
  80 H80           -3.2420    -2.5748    -0.9212 H       
@<TRIPOS>BOND
   1    1    2 ar
   2    1    3 ar
   3    1   23 ar
   4    2   20 ar
   5    2    6 ar
   6    3    4 ar
   7    3   48 1
   8    4    5 ar
   9    4    8 1
  10    5    6 ar
  11    5    7 1
  12    7   14 ar
  13    7   18 ar
  14    8    9 ar
  15    8   13 ar
  16    9   10 ar
  17    9   49 1
  18   10   11 ar
  19   10   50 1
  20   11   12 ar
  21   11   51 1
  22   12   13 ar
  23   12   52 1
  24   13   53 1
  25   14   15 ar
  26   14   54 1
  27   15   16 ar
  28   15   55 1
  29   16   17 ar
  30   16   19 1
  31   17   18 ar
  32   17   56 1
  33   18   57 1
  34   19   25 1
  35   19   58 1
  36   19   59 1
  37   20   21 ar
  38   21   22 ar
  39   21   24 1
  40   22   23 ar
  41   23   60 1
  42   24   42 1
  43   24   45 1
  44   25   26 1
  45   25   30 1
  46   26   27 1
  47   26   61 1
  48   26   62 1
  49   27   28 1
  50   27   63 1
  51   27   64 1
  52   28   29 1
  53   28   31 1
  54   28   65 1
  55   29   30 1
  56   29   66 1
  57   29   67 1
  58   30   68 1
  59   30   69 1
  60   31   32 1
  61   31   35 2
  62   32   33 1
  63   32   70 1
  64   33   34 2
  65   33   36 1
  66   34   35 1
  67   36   37 ar
  68   36   41 ar
  69   37   38 ar
  70   37   71 1
  71   38   39 ar
  72   38   72 1
  73   39   40 ar
  74   39   73 1
  75   40   41 ar
  76   40   74 1
  77   42   43 1
  78   42   75 1
  79   42   76 1
  80   43   44 1
  81   43   46 1
  82   43   47 1
  83   44   45 1
  84   44   77 1
  85   44   78 1
  86   45   79 1
  87   45   80 1

#	End of record

