#	Name: ASD05580007
#	Creating user name:	WinNT
#	Creation time:	15. 06. 2019 21:01

#	Modifying user name:	WinNT
#	Modification time:	15. 06. 2019 21:01

#	Program:	/corina/corina34_cracker 3.40 0067  02.08.2006

@<TRIPOS>MOLECULE
ASD05580007
  32   33    0    0    0
SMALL
NO_CHARGES


@<TRIPOS>ATOM
   1 C1            -2.5453    -1.8459    -4.2991 C.ar    
   2 C2            -1.8215    -2.3179    -3.2120 C.ar    
   3 C3            -2.1720    -1.9379    -1.9316 C.ar    
   4 C4            -3.2485    -1.0836    -1.7310 C.ar    
   5 C5            -3.9724    -0.6116    -2.8183 C.ar    
   6 C6            -3.6182    -0.9872    -4.0989 C.ar    
   7 N7            -2.1899    -2.2312    -5.5970 N.pl3   
   8 N8            -3.6042    -0.6987    -0.4329 N.pl3   
   9 C9            -4.7706     0.0450    -0.2182 C.ar    
  10 C10           -4.6975     1.4238    -0.0699 C.ar    
  11 C11           -5.8483     2.1574     0.1414 C.ar    
  12 C12           -7.0783     1.5164     0.2060 C.ar    
  13 C13           -7.1514     0.1373     0.0581 C.ar    
  14 C14           -6.0018    -0.5955    -0.1593 C.ar    
  15 N15           -8.2446     2.2601     0.4206 N.pl3   
  16 S16           -6.0947    -2.3450    -0.3476 S.o2    
  17 O17           -6.1312    -2.6361    -1.8410 O.3     
  18 O18           -4.8631    -2.8662     0.1328 O.2     
  19 O19           -7.3589    -2.7376     0.1688 O.2     
  20 H20           -0.9846    -2.9825    -3.3680 H       
  21 H21           -1.6092    -2.3053    -1.0862 H       
  22 H22           -4.8095     0.0526    -2.6624 H       
  23 H23           -4.1811    -0.6202    -4.9444 H       
  24 H24           -1.4381    -2.8278    -5.7371 H       
  25 H25           -2.6955    -1.9015    -6.3564 H       
  26 H26           -3.0425    -0.9473     0.3178 H       
  27 H27           -3.7408     1.9223    -0.1194 H       
  28 H28           -5.7915     3.2297     0.2568 H       
  29 H29           -8.1081    -0.3612     0.1090 H       
  30 H30           -8.1935     3.2232     0.5243 H       
  31 H31           -9.1039     1.8123     0.4658 H       
  32 H32           -6.1828    -3.5772    -2.0572 H       
@<TRIPOS>BOND
   1    1    2 ar
   2    1    7 1
   3    1    6 ar
   4    2    3 ar
   5    2   20 1
   6    3    4 ar
   7    3   21 1
   8    4    5 ar
   9    4    8 1
  10    5    6 ar
  11    5   22 1
  12    6   23 1
  13    7   24 1
  14    7   25 1
  15    8    9 1
  16    8   26 1
  17    9   10 ar
  18    9   14 ar
  19   10   11 ar
  20   10   27 1
  21   11   12 ar
  22   11   28 1
  23   12   13 ar
  24   12   15 1
  25   13   14 ar
  26   13   29 1
  27   14   16 1
  28   15   30 1
  29   15   31 1
  30   16   17 1
  31   16   18 2
  32   16   19 2
  33   17   32 1

#	End of record

