#	Name: ASD04590417
#	Creating user name:	WinNT
#	Creation time:	15. 06. 2019 20:50

#	Modifying user name:	WinNT
#	Modification time:	15. 06. 2019 20:50

#	Program:	/corina/corina34_cracker 3.40 0067  02.08.2006

@<TRIPOS>MOLECULE
ASD04590417
  70   75    0    0    0
SMALL
NO_CHARGES


@<TRIPOS>ATOM
   1 C1             1.1224    -0.5027     0.6638 C.ar    
   2 C2             0.0013    -0.0030    -0.0115 C.ar    
   3 C3             1.2832     1.9081    -0.7180 C.ar    
   4 C4             2.3997     1.3908    -0.0333 C.ar    
   5 C5             2.3014     0.1853     0.6514 C.ar    
   6 N6             1.6678     3.0791    -1.2845 N.2     
   7 C7             2.9255     3.3123    -0.9986 C.2     
   8 N8             3.4221     2.2959    -0.2264 N.pl3   
   9 C9             3.6927     4.4942    -1.4430 C.2     
  10 C10            3.2001     5.5537    -2.2395 C.2     
  11 C11            4.2116     6.4370    -2.4239 C.2     
  12 N12            5.3046     5.9607    -1.7719 N.pl3   
  13 N13            4.9556     4.7493    -1.1619 N.2     
  14 N14            1.8966     5.6696    -2.7489 N.am    
  15 C15            1.5584     6.7376    -3.4983 C.2     
  16 O16            2.3821     7.6009    -3.7333 O.2     
  17 C17            0.1891     6.8593    -4.0334 C.ar    
  18 C18            0.0803     1.2021    -0.7029 C.ar    
  19 C19           -1.4122     6.4424    -5.7806 C.ar    
  20 C20           -2.3851     7.0881    -5.0394 C.ar    
  21 C21           -2.0802     7.6254    -3.8019 C.ar    
  22 C22           -0.7999     7.5160    -3.2930 C.ar    
  23 C23           -0.1266     6.3238    -5.2868 C.ar    
  24 F24            0.8224     5.6931    -6.0126 F       
  25 F25           -0.5043     8.0411    -2.0838 F       
  26 C26           -1.2679    -0.7576     0.0101 C.2     
  27 N27           -2.4397    -0.1021     0.1266 N.am    
  28 O28           -1.2558    -1.9702    -0.0771 O.2     
  29 C29           -3.7195    -0.8201     0.0276 C.3     
  30 C30           -4.5794    -0.4520     1.2415 C.3     
  31 N31           -4.6927     1.0098     1.3321 N.3     
  32 C32           -3.3816     1.6330     1.5570 C.3     
  33 C33           -2.4726     1.3494     0.3622 C.3     
  34 C34           -5.6474     1.4000     2.3781 C.3     
  35 C35           -5.6468     2.9237     2.5289 C.3     
  36 C36           -7.0528     0.9341     1.9878 C.3     
  37 C37           -8.0518     1.3963     3.0510 C.3     
  38 N38           -8.0138     2.8604     3.1567 N.3     
  39 C39           -6.6866     3.3282     3.5765 C.3     
  40 C40           -9.0569     3.3497     4.0680 C.3     
  41 H41            1.0522    -1.4366     1.2017 H       
  42 H42            3.1600    -0.2081     1.1753 H       
  43 H43            4.3252     2.2257     0.1204 H       
  44 H44            4.1583     7.3560    -2.9887 H       
  45 H45            6.1747     6.3877    -1.7325 H       
  46 H46            1.2396     4.9810    -2.5615 H       
  47 H47           -0.7833     1.5877    -1.2244 H       
  48 H48           -1.6588     6.0254    -6.7458 H       
  49 H49           -3.3876     7.1773    -5.4312 H       
  50 H50           -2.8459     8.1284    -3.2299 H       
  51 H51           -4.2338    -0.5272    -0.8877 H       
  52 H52           -3.5369    -1.8947     0.0206 H       
  53 H53           -5.5723    -0.8875     1.1294 H       
  54 H54           -4.1128    -0.8376     2.1480 H       
  55 H55           -3.5058     2.7096     1.6737 H       
  56 H56           -2.9317     1.2184     2.4592 H       
  57 H57           -1.4661     1.7104     0.5740 H       
  58 H58           -2.8651     1.8492    -0.5233 H       
  59 H59           -5.3598     0.9403     3.3237 H       
  60 H60           -4.6596     3.2574     2.8484 H       
  61 H61           -5.8955     3.3841     1.5727 H       
  62 H62           -7.3236     1.3632     1.0231 H       
  63 H63           -7.0700    -0.1537     1.9206 H       
  64 H64           -9.0555     1.0785     2.7688 H       
  65 H65           -7.7885     0.9558     4.0127 H       
  66 H66           -6.4296     2.8786     4.5356 H       
  67 H67           -6.6987     4.4136     3.6759 H       
  68 H68           -8.9025     2.9237     5.0593 H       
  69 H69           -9.0063     4.4369     4.1279 H       
  70 H70          -10.0360     3.0517     3.6929 H       
@<TRIPOS>BOND
   1    1    2 ar
   2    1    5 ar
   3    1   41 1
   4    2   18 ar
   5    2   26 1
   6    3    4 ar
   7    3    6 1
   8    3   18 ar
   9    4    5 ar
  10    4    8 1
  11    5   42 1
  12    6    7 2
  13    7    8 1
  14    7    9 1
  15    8   43 1
  16    9   10 1
  17    9   13 2
  18   10   11 2
  19   10   14 1
  20   11   12 1
  21   11   44 1
  22   12   13 1
  23   12   45 1
  24   14   15 am
  25   14   46 1
  26   15   16 2
  27   15   17 1
  28   17   23 ar
  29   17   22 ar
  30   18   47 1
  31   19   20 ar
  32   19   23 ar
  33   19   48 1
  34   20   21 ar
  35   20   49 1
  36   21   22 ar
  37   21   50 1
  38   22   25 1
  39   23   24 1
  40   26   27 am
  41   26   28 2
  42   27   29 1
  43   27   33 1
  44   29   30 1
  45   29   51 1
  46   29   52 1
  47   30   31 1
  48   30   53 1
  49   30   54 1
  50   31   32 1
  51   31   34 1
  52   32   33 1
  53   32   55 1
  54   32   56 1
  55   33   57 1
  56   33   58 1
  57   34   35 1
  58   34   36 1
  59   34   59 1
  60   35   39 1
  61   35   60 1
  62   35   61 1
  63   36   37 1
  64   36   62 1
  65   36   63 1
  66   37   38 1
  67   37   64 1
  68   37   65 1
  69   38   39 1
  70   38   40 1
  71   39   66 1
  72   39   67 1
  73   40   68 1
  74   40   69 1
  75   40   70 1

#	End of record

