#	Name: ASD01001037
#	Creating user name:	WinNT
#	Creation time:	15. 06. 2019 18:55

#	Modifying user name:	WinNT
#	Modification time:	15. 06. 2019 18:55

#	Program:	/corina/corina34_cracker 3.40 0067  02.08.2006

@<TRIPOS>MOLECULE
ASD01001037
  47   49    0    0    0
SMALL
NO_CHARGES


@<TRIPOS>ATOM
   1 C1             0.2195     2.5164     0.4986 C.ar    
   2 C2            -0.1862     1.2619     0.9138 C.ar    
   3 C3             1.5469     2.7467     0.1896 C.ar    
   4 C4             0.7366     0.2369     1.0201 C.ar    
   5 C5             2.4697     1.7225     0.2953 C.ar    
   6 C6             2.0654     0.4680     0.7107 C.ar    
   7 C7             3.9166     1.9742    -0.0427 C.3     
   8 C8             4.6878     0.6834     0.0580 C.ar    
   9 C9             4.0182     2.5119    -1.4468 C.ar    
  10 S10            4.6074     3.1836     1.1195 S.3     
  11 C11            4.3646    -0.3807    -0.7631 C.ar    
  12 C12            5.7221     0.5653     0.9675 C.ar    
  13 C13            3.0574     2.1824    -2.3844 C.ar    
  14 C14            5.0693     3.3393    -1.7956 C.ar    
  15 C15            4.2023     2.4717     2.7380 C.3     
  16 C16            5.0757    -1.5628    -0.6747 C.ar    
  17 C17            6.4295    -0.6187     1.0598 C.ar    
  18 C18            3.1476     2.6802    -3.6709 C.ar    
  19 C19            5.1626     3.8325    -3.0836 C.ar    
  20 C20            4.8413     3.3173     3.8415 C.3     
  21 C21            6.1103    -1.6807     0.2345 C.ar    
  22 C22            4.1984     3.5079    -4.0196 C.ar    
  23 N23            6.2995     3.3325     3.6643 N.3     
  24 Cl24           0.2280    -1.3388     1.5420 Cl      
  25 C25            4.5048     2.7259     5.1861 C.2     
  26 O26            5.3130     2.0372     5.7626 O.2     
  27 O27            3.3071     2.9642     5.7433 O.3     
  28 H28           -0.5016     3.3156     0.4112 H       
  29 H29           -1.2233     1.0821     1.1555 H       
  30 H30            1.8634     3.7271    -0.1347 H       
  31 H31            2.7863    -0.3318     0.7939 H       
  32 H32            3.5563    -0.2886    -1.4735 H       
  33 H33            5.9777     1.3983     1.6056 H       
  34 H34            2.2365     1.5357    -2.1120 H       
  35 H35            5.8173     3.6006    -1.0618 H       
  36 H36            3.1203     2.4604     2.8695 H       
  37 H37            4.5857     1.4528     2.7931 H       
  38 H38            4.8228    -2.3944    -1.3157 H       
  39 H39            7.2378    -0.7108     1.7702 H       
  40 H40            2.3974     2.4221    -4.4036 H       
  41 H41            5.9835     4.4792    -3.3561 H       
  42 H42            4.4580     4.3362     3.7864 H       
  43 H43            6.6656    -2.6044     0.3038 H       
  44 H44            4.2713     3.8932    -5.0259 H       
  45 H45            6.7398     3.9365     4.3421 H       
  46 H46            6.6792     2.3988     3.7113 H       
  47 H47            3.1371     2.5634     6.6068 H       
@<TRIPOS>BOND
   1    1    2 ar
   2    1    3 ar
   3    1   28 1
   4    2    4 ar
   5    2   29 1
   6    3    5 ar
   7    3   30 1
   8    4    6 ar
   9    4   24 1
  10    5    6 ar
  11    5    7 1
  12    6   31 1
  13    7   10 1
  14    7    8 1
  15    7    9 1
  16    8   12 ar
  17    8   11 ar
  18    9   14 ar
  19    9   13 ar
  20   10   15 1
  21   11   16 ar
  22   11   32 1
  23   12   17 ar
  24   12   33 1
  25   13   18 ar
  26   13   34 1
  27   14   19 ar
  28   14   35 1
  29   15   20 1
  30   15   36 1
  31   15   37 1
  32   16   21 ar
  33   16   38 1
  34   17   21 ar
  35   17   39 1
  36   18   22 ar
  37   18   40 1
  38   19   22 ar
  39   19   41 1
  40   20   23 1
  41   20   25 1
  42   20   42 1
  43   21   43 1
  44   22   44 1
  45   23   45 1
  46   23   46 1
  47   25   26 2
  48   25   27 1
  49   27   47 1

#	End of record

