#	Name: ASD03570028
#	Creating user name:	WinNT
#	Creation time:	15. 06. 2019 20:43

#	Modifying user name:	WinNT
#	Modification time:	15. 06. 2019 20:43

#	Program:	/corina/corina34_cracker 3.40 0067  02.08.2006

@<TRIPOS>MOLECULE
ASD03570028
  55   56    0    0    0
SMALL
NO_CHARGES


@<TRIPOS>ATOM
   1 C1            -0.0168     1.3857     0.0097 C.ar    
   2 C2             0.0021    -0.0041     0.0020 C.ar    
   3 C3             1.1976    -0.6903    -0.0131 C.ar    
   4 C4             2.3989     0.0120    -0.0209 C.ar    
   5 C5             2.3778     1.4209    -0.0131 C.ar    
   6 C6             1.1493     2.0966     0.0023 C.ar    
   7 N7             3.7167    -0.3795    -0.0361 N.pl3   
   8 C8             4.5159     0.7489    -0.0380 C.2     
   9 C9             3.7246     1.8547    -0.0242 C.2     
  10 C10            4.1973     3.2856    -0.0216 C.3     
  11 C11            4.3425     3.7773    -1.4632 C.3     
  12 Cl12          -1.4943    -0.8842     0.0122 Cl      
  13 Cl13           1.1105     3.8322     0.0115 Cl      
  14 C14            4.1954    -1.7641    -0.0482 C.3     
  15 C15            4.3483    -2.2381    -1.4949 C.3     
  16 C16            4.8152     5.2082    -1.4607 C.2     
  17 O17            5.0154     5.7765    -0.4134 O.2     
  18 O18            5.0138     5.8515    -2.6219 O.3     
  19 C19            5.6384     7.7905    -3.9563 C.3     
  20 C20            5.4694     7.2279    -2.5435 C.3     
  21 C21            5.9840     0.7526    -0.0516 C.2     
  22 O22            6.5893     1.8070    -0.0520 O.2     
  23 O23            6.6611    -0.4136    -0.0635 O.3     
  24 C24            8.6991    -1.7464    -0.0890 C.3     
  25 C25            8.1109    -0.3340    -0.0766 C.3     
  26 C26            4.8407    -3.6624    -1.5074 C.2     
  27 O27            5.0481    -4.2391    -0.4661 O.2     
  28 O28            5.0489    -4.2903    -2.6753 O.3     
  29 C29            5.7010    -6.2060    -4.0300 C.3     
  30 C30            5.5234    -5.6611    -2.6114 C.3     
  31 H31           -0.9620     1.9080     0.0170 H       
  32 H32            1.2019    -1.7703    -0.0186 H       
  33 H33            3.4715     3.9071     0.5028 H       
  34 H34            5.1615     3.3488     0.4827 H       
  35 H35            5.0683     3.1558    -1.9877 H       
  36 H36            3.3783     3.7141    -1.9675 H       
  37 H37            5.1601    -1.8194     0.4562 H       
  38 H38            3.4779    -2.4011     0.4690 H       
  39 H39            3.3836    -2.1828    -1.9992 H       
  40 H40            5.0658    -1.6011    -2.0121 H       
  41 H41            5.9804     8.8238    -3.8974 H       
  42 H42            6.3726     7.1951    -4.4990 H       
  43 H43            4.6826     7.7534    -4.4789 H       
  44 H44            4.7352     7.8233    -2.0008 H       
  45 H45            6.4253     7.2651    -2.0209 H       
  46 H46            9.7874    -1.6866    -0.0988 H       
  47 H47            8.3727    -2.2837     0.8014 H       
  48 H48            8.3562    -2.2750    -0.9784 H       
  49 H49            8.4372     0.2033    -0.9670 H       
  50 H50            8.4538     0.1946     0.8128 H       
  51 H51            6.0572    -7.2350    -3.9820 H       
  52 H52            4.7451    -6.1764    -4.5529 H       
  53 H53            6.4273    -5.5947    -4.5657 H       
  54 H54            6.4793    -5.6906    -2.0885 H       
  55 H55            4.7971    -6.2723    -2.0756 H       
@<TRIPOS>BOND
   1    1    2 ar
   2    1    6 ar
   3    1   31 1
   4    2    3 ar
   5    2   12 1
   6    3    4 ar
   7    3   32 1
   8    4    5 ar
   9    4    7 1
  10    5    6 ar
  11    5    9 1
  12    6   13 1
  13    7    8 1
  14    7   14 1
  15    8    9 2
  16    8   21 1
  17    9   10 1
  18   10   11 1
  19   10   33 1
  20   10   34 1
  21   11   16 1
  22   11   35 1
  23   11   36 1
  24   14   15 1
  25   14   37 1
  26   14   38 1
  27   15   26 1
  28   15   39 1
  29   15   40 1
  30   16   17 2
  31   16   18 1
  32   18   20 1
  33   19   20 1
  34   19   41 1
  35   19   42 1
  36   19   43 1
  37   20   44 1
  38   20   45 1
  39   21   22 2
  40   21   23 1
  41   23   25 1
  42   24   25 1
  43   24   46 1
  44   24   47 1
  45   24   48 1
  46   25   49 1
  47   25   50 1
  48   26   27 2
  49   26   28 1
  50   28   30 1
  51   29   30 1
  52   29   51 1
  53   29   52 1
  54   29   53 1
  55   30   54 1
  56   30   55 1

#	End of record

