#	Name: ASD05143107
#	Creating user name:	WinNT
#	Creation time:	15. 06. 2019 20:57

#	Modifying user name:	WinNT
#	Modification time:	15. 06. 2019 20:57

#	Program:	/corina/corina34_cracker 3.40 0067  02.08.2006

@<TRIPOS>MOLECULE
ASD05143107
 144  147    0    0    0
SMALL
NO_CHARGES


@<TRIPOS>ATOM
   1 C1            -2.1039     5.4045     7.5376 C.2     
   2 C2            -1.6182     4.6673     8.7589 C.3     
   3 N3            -1.2162     5.9398     6.6762 N.am    
   4 O4            -3.2935     5.5117     7.3271 O.2     
   5 C5            -1.6883     6.6564     5.4889 C.3     
   6 C6            -2.5220     5.7117     4.6209 C.3     
   7 C7            -2.5359     7.8280     5.9132 C.2     
   8 C8            -1.6303     4.5885     4.0878 C.3     
   9 C9            -2.4640     3.6438     3.2199 C.3     
  10 N10           -1.6101     2.5684     2.7094 N.pl3   
  11 C11           -2.1429     1.5930     1.9002 C.2     
  12 N12           -3.4771     1.6269     1.5699 N.pl3   
  13 N13           -1.3832     0.6362     1.4460 N.2     
  14 O14           -3.0283     7.8504     7.0213 O.2     
  15 N15           -2.7465     8.8509     5.0613 N.am    
  16 C16           -3.5705     9.9899     5.4738 C.3     
  17 C17           -2.6674    11.1812     5.7996 C.3     
  18 C18           -1.5111    10.7178     6.6877 C.3     
  19 C19           -0.3703    10.2472     5.8230 C.2     
  20 N20            0.8969    10.6599     6.1240 N.am    
  21 C21            1.9600    10.1475     5.2297 C.3     
  22 C22            2.1100    11.1066     4.0472 C.3     
  23 C23            2.7731    10.3748     2.8785 C.3     
  24 C24            3.7314    11.3255     2.1583 C.3     
  25 N25            3.6795    11.0467     0.7091 N.am    
  26 C26            5.1341    11.1077     2.6646 C.2     
  27 N27            5.5220    11.6575     3.8324 N.am    
  28 O28            5.9139    10.4378     2.0211 O.2     
  29 C29            2.8533    11.8339    -0.0324 C.2     
  30 O30            2.2095    12.7163     0.4948 O.2     
  31 C31            2.7487    11.5957    -1.5167 C.3     
  32 N32            1.5339    12.2779    -2.0191 N.am    
  33 C33            3.9843    12.1650    -2.2168 C.3     
  34 C34            0.4807    11.4581    -2.3110 C.2     
  35 O35            0.5723    10.2579    -2.1624 O.2     
  36 C36           -0.7971    12.0734    -2.8205 C.3     
  37 N37           -1.9239    11.1807    -2.4834 N.am    
  38 C38           -1.0083    13.4373    -2.1602 C.3     
  39 C39           -3.0284    11.7696    -1.9477 C.2     
  40 O40           -3.0577    12.9677    -1.7618 O.2     
  41 C41           -4.2140    10.9112    -1.5895 C.3     
  42 C42            3.9359    11.8178    -3.6825 C.2     
  43 C43            3.2374    12.5638    -4.7320 C.ar    
  44 C44            3.4750    11.8648    -5.9294 C.ar    
  45 N45            4.2602    10.7779    -5.6164 N.pl3   
  46 C46            4.5294    10.7695    -4.2748 C.2     
  47 C47            2.4606    13.7240    -4.7449 C.ar    
  48 C48            1.9346    14.1750    -5.9224 C.ar    
  49 C49            2.1658    13.4885    -7.1068 C.ar    
  50 C50            2.9298    12.3424    -7.1170 C.ar    
  51 N51           -4.7995    11.4140    -0.3258 N.am    
  52 C52           -3.7609     9.4616    -1.4042 C.3     
  53 C53           -4.9594     8.5930    -1.1210 C.ar    
  54 C54           -5.9885     8.5156    -2.0407 C.ar    
  55 C55           -7.0900     7.7179    -1.7826 C.ar    
  56 C56           -7.1607     6.9966    -0.6013 C.ar    
  57 C57           -6.1278     7.0755     0.3195 C.ar    
  58 C58           -5.0255     7.8703     0.0554 C.ar    
  59 C59           -4.5090    10.3625     4.3550 C.2     
  60 O60           -5.7073    10.2308     4.4877 O.2     
  61 C61           -1.0180    13.2715    -0.6392 C.3     
  62 C62           -1.3759    14.6064     0.0171 C.3     
  63 N63           -1.3852    14.4477     1.4734 N.pl3   
  64 C64           -1.6823    15.5207     2.2800 C.2     
  65 N65           -1.9706    16.7427     1.7199 N.pl3   
  66 N66           -1.6906    15.3794     3.5757 N.2     
  67 N67           -3.9923    10.8485     3.1931 N.am    
  68 C68           -4.9603    11.1966     2.1338 C.3     
  69 C69           -4.4059    10.7545     0.8041 C.2     
  70 O70           -3.6245     9.8293     0.7380 O.2     
  71 C71           -5.1819    12.7104     2.1190 C.3     
  72 C72           -5.8348    13.1350     3.4091 C.2     
  73 N73           -6.1274    14.4335     3.6209 N.am    
  74 F74           -8.2351     6.2179    -0.3474 F       
  75 O75           -0.5731     9.5153     4.8775 O.2     
  76 O76           -6.0971    12.3083     4.2569 O.2     
  77 F77           -8.0958     7.6430    -2.6816 F       
  78 F78           -6.1945     6.3737     1.4720 F       
  79 H79           -1.0243     5.3403     9.3773 H       
  80 H80           -2.4739     4.3085     9.3309 H       
  81 H81           -1.0052     3.8199     8.4520 H       
  82 H82           -0.2647     5.8505     6.8424 H       
  83 H83           -0.8326     7.0152     4.9169 H       
  84 H84           -3.3267     5.2839     5.2189 H       
  85 H85           -2.9466     6.2666     3.7843 H       
  86 H86           -0.8256     5.0163     3.4898 H       
  87 H87           -1.2057     4.0336     4.9244 H       
  88 H88           -3.2686     3.2160     3.8179 H       
  89 H89           -2.8885     4.1987     2.3833 H       
  90 H90           -0.6688     2.5445     2.9424 H       
  91 H91           -4.0424     2.3389     1.9079 H       
  92 H92           -3.8530     0.9387     0.9990 H       
  93 H93           -1.7591    -0.0520     0.8751 H       
  94 H94           -2.3527     8.8330     4.1751 H       
  95 H95           -4.1480     9.7193     6.3578 H       
  96 H96           -2.2701    11.5994     4.8748 H       
  97 H97           -3.2454    11.9425     6.3236 H       
  98 H98           -1.1766    11.5472     7.3108 H       
  99 H99           -1.8471     9.8985     7.3234 H       
 100 H100           1.0870    11.2481     6.8716 H       
 101 H101           2.9015    10.0904     5.7760 H       
 102 H102           1.6855     9.1576     4.8651 H       
 103 H103           1.1264    11.4633     3.7415 H       
 104 H104           2.7282    11.9542     4.3429 H       
 105 H105           3.3285     9.5161     3.2558 H       
 106 H106           2.0073    10.0342     2.1816 H       
 107 H107           3.4304    12.3567     2.3429 H       
 108 H108           4.2067    10.3389     0.3065 H       
 109 H109           4.8983    12.1933     4.3470 H       
 110 H110           6.4248    11.5174     4.1582 H       
 111 H111           2.6746    10.5258    -1.7115 H       
 112 H112           1.4893    13.2401    -2.1332 H       
 113 H113           4.0009    13.2486    -2.1004 H       
 114 H114           4.8830    11.7379    -1.7718 H       
 115 H115          -0.7382    12.1945    -3.9022 H       
 116 H116          -1.8794    10.2238    -2.6355 H       
 117 H117          -0.1994    14.1091    -2.4472 H       
 118 H118          -1.9607    13.8553    -2.4862 H       
 119 H119          -4.9581    10.9654    -2.3842 H       
 120 H120           4.5782    10.1186    -6.2527 H       
 121 H121           5.1247    10.0254    -3.7666 H       
 122 H122           2.2760    14.2628    -3.8273 H       
 123 H123           1.3339    15.0724    -5.9319 H       
 124 H124           1.7429    13.8572    -8.0296 H       
 125 H125           3.1041    11.8157    -8.0436 H       
 126 H126          -5.4190    12.1600    -0.3018 H       
 127 H127          -3.2683     9.1159    -2.3130 H       
 128 H128          -3.0640     9.4028    -0.5682 H       
 129 H129          -5.9332     9.0781    -2.9609 H       
 130 H130          -4.2205     7.9321     0.7726 H       
 131 H131          -1.7567    12.5200    -0.3604 H       
 132 H132          -0.0314    12.9538    -0.3020 H       
 133 H133          -0.6373    15.3579    -0.2618 H       
 134 H134          -2.3626    14.9241    -0.3201 H       
 135 H135          -1.1818    13.5855     1.8686 H       
 136 H136          -1.9645    16.8478     0.7556 H       
 137 H137          -2.1802    17.4997     2.2889 H       
 138 H138          -1.9002    16.1365     4.1448 H       
 139 H139          -3.0370    10.9608     3.0676 H       
 140 H140          -5.9062    10.6888     2.3222 H       
 141 H141          -4.2226    13.2170     2.0134 H       
 142 H142          -5.8268    12.9750     1.2811 H       
 143 H143          -5.9176    15.0947     2.9428 H       
 144 H144          -6.5476    14.7069     4.4513 H       
@<TRIPOS>BOND
   1    1    2 1
   2    1    3 am
   3    1    4 2
   4    2   79 1
   5    2   80 1
   6    2   81 1
   7    3    5 1
   8    3   82 1
   9    5    6 1
  10    5    7 1
  11    5   83 1
  12    6    8 1
  13    6   84 1
  14    6   85 1
  15    7   14 2
  16    7   15 am
  17    8    9 1
  18    8   86 1
  19    8   87 1
  20    9   10 1
  21    9   88 1
  22    9   89 1
  23   10   11 1
  24   10   90 1
  25   11   12 1
  26   11   13 2
  27   12   91 1
  28   12   92 1
  29   13   93 1
  30   15   16 1
  31   15   94 1
  32   16   17 1
  33   16   59 1
  34   16   95 1
  35   17   18 1
  36   17   96 1
  37   17   97 1
  38   18   19 1
  39   18   98 1
  40   18   99 1
  41   19   20 am
  42   19   75 2
  43   20   21 1
  44   20  100 1
  45   21   22 1
  46   21  101 1
  47   21  102 1
  48   22   23 1
  49   22  103 1
  50   22  104 1
  51   23   24 1
  52   23  105 1
  53   23  106 1
  54   24   25 1
  55   24   26 1
  56   24  107 1
  57   25   29 am
  58   25  108 1
  59   26   27 am
  60   26   28 2
  61   27  109 1
  62   27  110 1
  63   29   30 2
  64   29   31 1
  65   31   32 1
  66   31   33 1
  67   31  111 1
  68   32   34 am
  69   32  112 1
  70   33   42 1
  71   33  113 1
  72   33  114 1
  73   34   35 2
  74   34   36 1
  75   36   37 1
  76   36   38 1
  77   36  115 1
  78   37   39 am
  79   37  116 1
  80   38   61 1
  81   38  117 1
  82   38  118 1
  83   39   40 2
  84   39   41 1
  85   41   51 1
  86   41   52 1
  87   41  119 1
  88   42   43 1
  89   42   46 2
  90   43   44 ar
  91   43   47 ar
  92   44   45 1
  93   44   50 ar
  94   45   46 1
  95   45  120 1
  96   46  121 1
  97   47   48 ar
  98   47  122 1
  99   48   49 ar
 100   48  123 1
 101   49   50 ar
 102   49  124 1
 103   50  125 1
 104   51   69 am
 105   51  126 1
 106   52   53 1
 107   52  127 1
 108   52  128 1
 109   53   54 ar
 110   53   58 ar
 111   54   55 ar
 112   54  129 1
 113   55   56 ar
 114   55   77 1
 115   56   57 ar
 116   56   74 1
 117   57   58 ar
 118   57   78 1
 119   58  130 1
 120   59   60 2
 121   59   67 am
 122   61   62 1
 123   61  131 1
 124   61  132 1
 125   62   63 1
 126   62  133 1
 127   62  134 1
 128   63   64 1
 129   63  135 1
 130   64   65 1
 131   64   66 2
 132   65  136 1
 133   65  137 1
 134   66  138 1
 135   67   68 1
 136   67  139 1
 137   68   69 1
 138   68   71 1
 139   68  140 1
 140   69   70 2
 141   71   72 1
 142   71  141 1
 143   71  142 1
 144   72   73 am
 145   72   76 2
 146   73  143 1
 147   73  144 1

#	End of record

