#	Name: ASD03731006
#	Creating user name:	WinNT
#	Creation time:	15. 06. 2019 20:45

#	Modifying user name:	WinNT
#	Modification time:	15. 06. 2019 20:45

#	Program:	/corina/corina34_cracker 3.40 0067  02.08.2006

@<TRIPOS>MOLECULE
ASD03731006
  53   58    0    0    0
SMALL
NO_CHARGES


@<TRIPOS>ATOM
   1 N1             0.1708     1.5798     0.0645 N.pl3   
   2 N2             1.3492     2.0084     0.3551 N.2     
   3 N3             2.2126     1.0616     0.2582 N.2     
   4 C4             1.5997    -0.0620    -0.1143 C.2     
   5 C5             0.2711     0.2486    -0.2469 C.2     
   6 C6            -0.8189    -0.6573    -0.6401 C.2     
   7 O7            -0.5688    -1.7961    -0.9832 O.2     
   8 O8            -2.0954    -0.2244    -0.6199 O.3     
   9 C9            -1.0609     2.3730     0.0715 C.3     
  10 C10           -1.6093     2.4508     1.4977 C.3     
  11 O11           -6.5355     4.2038    -3.4369 O.3     
  12 C12           -7.7538     4.8483    -3.8532 C.3     
  13 O13           -8.6470     4.6418    -2.7430 O.3     
  14 C14           -7.8440     4.5223    -1.6449 C.ar    
  15 C15           -6.5460     4.2520    -2.0722 C.ar    
  16 C16           -8.1199     4.6249    -0.2933 C.ar    
  17 C17           -7.1082     4.4580     0.6476 C.ar    
  18 C18           -5.8172     4.1801     0.2088 C.ar    
  19 C19           -5.5376     4.0832    -1.1383 C.ar    
  20 O20           -7.1618     4.5343     2.0083 O.3     
  21 C21           -4.9684     4.0280     1.4426 C.3     
  22 C22           -6.0035     3.8846     2.5666 C.3     
  23 N23           -2.8030     3.2999     1.5162 N.am    
  24 C24           -4.0592     2.8356     1.3634 C.2     
  25 C25           -4.0637     5.2041     1.6618 C.ar    
  26 C26           -4.2802     6.5552     1.8169 C.ar    
  27 C27           -3.2103     7.4109     2.0093 C.ar    
  28 C28           -1.9231     6.9062     2.0448 C.ar    
  29 C29           -1.7009     5.5539     1.8889 C.ar    
  30 C30           -2.7720     4.6850     1.6952 C.ar    
  31 O31           -4.3902     1.6809     1.1952 O.2     
  32 C32           -3.1208    -1.1773    -1.0058 C.3     
  33 C33           -4.4769    -0.4713    -1.0648 C.3     
  34 H34            2.0587    -1.0255    -0.2795 H       
  35 H35           -0.8475     3.3785    -0.2911 H       
  36 H36           -1.7999     1.9022    -0.5768 H       
  37 H37           -1.8700     1.4500     1.8419 H       
  38 H38           -0.8512     2.8754     2.1558 H       
  39 H39           -7.5871     5.9129    -4.0177 H       
  40 H40           -8.1475     4.3777    -4.7541 H       
  41 H41           -9.1273     4.8360     0.0340 H       
  42 H42           -4.5297     3.8749    -1.4656 H       
  43 H43           -5.6692     4.3973     3.4685 H       
  44 H44           -6.2099     2.8341     2.7711 H       
  45 H45           -5.2862     6.9471     1.7887 H       
  46 H46           -3.3798     8.4704     2.1319 H       
  47 H47           -1.0878     7.5743     2.1949 H       
  48 H48           -0.6928     5.1674     1.9173 H       
  49 H49           -2.8829    -1.5899    -1.9862 H       
  50 H50           -3.1623    -1.9830    -0.2729 H       
  51 H51           -5.2505    -1.1920    -1.3298 H       
  52 H52           -4.7031    -0.0369    -0.0911 H       
  53 H53           -4.4431     0.3181    -1.8158 H       
@<TRIPOS>BOND
   1    1    2 1
   2    1    5 1
   3    1    9 1
   4    2    3 2
   5    3    4 1
   6    4    5 2
   7    4   34 1
   8    5    6 1
   9    6    7 2
  10    6    8 1
  11    8   32 1
  12    9   10 1
  13    9   35 1
  14    9   36 1
  15   10   23 1
  16   10   37 1
  17   10   38 1
  18   11   12 1
  19   11   15 1
  20   12   13 1
  21   12   39 1
  22   12   40 1
  23   13   14 1
  24   14   15 ar
  25   14   16 ar
  26   15   19 ar
  27   16   17 ar
  28   16   41 1
  29   17   18 ar
  30   17   20 1
  31   18   19 ar
  32   18   21 1
  33   19   42 1
  34   20   22 1
  35   21   22 1
  36   21   24 1
  37   21   25 1
  38   22   43 1
  39   22   44 1
  40   23   24 am
  41   23   30 1
  42   24   31 2
  43   25   26 ar
  44   25   30 ar
  45   26   27 ar
  46   26   45 1
  47   27   28 ar
  48   27   46 1
  49   28   29 ar
  50   28   47 1
  51   29   30 ar
  52   29   48 1
  53   32   33 1
  54   32   49 1
  55   32   50 1
  56   33   51 1
  57   33   52 1
  58   33   53 1

#	End of record

