#	Name: ASD01510073
#	Creating user name:	WinNT
#	Creation time:	15. 06. 2019 19:21

#	Modifying user name:	WinNT
#	Modification time:	15. 06. 2019 19:21

#	Program:	/corina/corina34_cracker 3.40 0067  02.08.2006

@<TRIPOS>MOLECULE
ASD01510073
  53   55    0    0    0
SMALL
NO_CHARGES


@<TRIPOS>ATOM
   1 C1            -0.0067     1.4647    -0.0252 C.3     
   2 N2             0.0128    -0.0042    -0.0316 N.3     
   3 C3             0.7120    -0.5267     1.1507 C.3     
   4 C4             0.6412    -2.0556     1.1476 C.3     
   5 N5             1.2474    -2.5689    -0.0889 N.3     
   6 C6             0.5482    -2.0464    -1.2711 C.3     
   7 C7             0.6189    -0.5175    -1.2680 C.3     
   8 C8             1.2657    -3.9555    -0.0949 C.ar    
   9 N9             1.7795    -4.5889    -1.1383 N.ar    
  10 C10            1.8144    -5.9105    -1.1789 C.ar    
  11 C11            2.4014    -6.6227    -2.3702 C.3     
  12 C12            1.3020    -6.6347    -0.1061 C.ar    
  13 C13            0.7703    -5.9336     0.9727 C.ar    
  14 N14            0.7740    -4.6112     0.9454 N.ar    
  15 C15            0.2035    -6.6714     2.1582 C.3     
  16 S16            1.3254    -8.3965    -0.1137 S.3     
  17 C17            2.8906    -8.6850     0.6423 C.ar    
  18 N18            3.6303    -7.6494     1.0123 N.ar    
  19 C19            4.8120    -7.8268     1.5835 C.ar    
  20 C20            5.2750    -9.1117     1.7943 C.ar    
  21 C21            4.4737   -10.1825     1.3941 C.ar    
  22 N22            3.2966    -9.9323     0.8319 N.ar    
  23 N23            4.8988   -11.4911     1.5862 N.am    
  24 C24            4.0759   -12.5171     1.2919 C.2     
  25 O25            2.9302   -12.2982     0.9479 O.2     
  26 C26            4.5635   -13.9011     1.3867 C.2     
  27 C27            3.7512   -14.9138     1.0963 C.2     
  28 C28            5.9832   -14.1723     1.8130 C.3     
  29 H29            1.0161     1.8416    -0.0290 H       
  30 H30           -0.5300     1.8249    -0.9109 H       
  31 H31           -0.5206     1.8174     0.8690 H       
  32 H32            1.7549    -0.2109     1.1255 H       
  33 H33            0.2370    -0.1426     2.0534 H       
  34 H34            1.1840    -2.4465     2.0082 H       
  35 H35           -0.4007    -2.3716     1.2002 H       
  36 H36            1.0231    -2.4306    -2.1738 H       
  37 H37           -0.4948    -2.3622    -1.2460 H       
  38 H38            0.0761    -0.1266    -2.1286 H       
  39 H39            1.6608    -0.2016    -1.3206 H       
  40 H40            3.4672    -6.7838    -2.2084 H       
  41 H41            1.9043    -7.5840    -2.5001 H       
  42 H42            2.2573    -6.0155    -3.2639 H       
  43 H43            0.9913    -6.8386     2.8927 H       
  44 H44           -0.5930    -6.0787     2.6082 H       
  45 H45           -0.1979    -7.6306     1.8312 H       
  46 H46            5.4075    -6.9763     1.8811 H       
  47 H47            6.2352    -9.2836     2.2577 H       
  48 H48            5.7880   -11.6664     1.9321 H       
  49 H49            2.7337   -14.7195     0.7908 H       
  50 H50            4.1093   -15.9304     1.1659 H       
  51 H51            6.0234   -14.2769     2.8972 H       
  52 H52            6.3332   -15.0929     1.3460 H       
  53 H53            6.6200   -13.3434     1.5041 H       
@<TRIPOS>BOND
   1    1    2 1
   2    1   29 1
   3    1   30 1
   4    1   31 1
   5    2    3 1
   6    2    7 1
   7    3    4 1
   8    3   32 1
   9    3   33 1
  10    4    5 1
  11    4   34 1
  12    4   35 1
  13    5    6 1
  14    5    8 1
  15    6    7 1
  16    6   36 1
  17    6   37 1
  18    7   38 1
  19    7   39 1
  20    8    9 ar
  21    8   14 ar
  22    9   10 ar
  23   10   11 1
  24   10   12 ar
  25   11   40 1
  26   11   41 1
  27   11   42 1
  28   12   13 ar
  29   12   16 1
  30   13   14 ar
  31   13   15 1
  32   15   43 1
  33   15   44 1
  34   15   45 1
  35   16   17 1
  36   17   18 ar
  37   17   22 ar
  38   18   19 ar
  39   19   20 ar
  40   19   46 1
  41   20   21 ar
  42   20   47 1
  43   21   22 ar
  44   21   23 1
  45   23   24 am
  46   23   48 1
  47   24   25 2
  48   24   26 1
  49   26   27 2
  50   26   28 1
  51   27   49 1
  52   27   50 1
  53   28   51 1
  54   28   52 1
  55   28   53 1

#	End of record

