#	Name: ASD02038013
#	Creating user name:	WinNT
#	Creation time:	15. 06. 2019 20:16

#	Modifying user name:	WinNT
#	Modification time:	15. 06. 2019 20:16

#	Program:	/corina/corina34_cracker 3.40 0067  02.08.2006

@<TRIPOS>MOLECULE
ASD02038013
  49   52    0    0    0
SMALL
NO_CHARGES


@<TRIPOS>ATOM
   1 C1            -0.0184     1.5028     0.0103 C.ar    
   2 C2             0.0021    -0.0041     0.0020 C.3     
   3 O3             0.0217    -0.4954     1.3682 O.3     
   4 C4             0.0843    -3.7035     3.3608 C.3     
   5 N5             0.0604    -2.3527     2.7798 N.am    
   6 C6             0.0415    -1.8309     1.5373 C.2     
   7 C7            -0.0913    -3.6768     5.9282 C.3     
   8 O8            -0.8819    -3.1616     7.0013 O.3     
   9 C9            -0.5490    -3.5576     8.2587 C.ar    
  10 C10           -1.2752    -3.0950     9.3463 C.ar    
  11 C11            0.5132    -4.4288     8.4529 C.ar    
  12 C12            0.8514    -4.8324     9.7293 C.ar    
  13 C13            0.1284    -4.3655    10.8188 C.ar    
  14 C14           -0.9373    -3.4973    10.6232 C.ar    
  15 N15            0.4686    -4.7723    12.1148 N.am    
  16 C16           -0.4128    -4.6430    13.1233 C.2     
  17 C17           -1.7858    -4.0779    12.8779 C.3     
  18 C18           -1.7196    -2.9917    11.8074 C.3     
  19 O19            0.0423    -2.5659     0.5696 O.2     
  20 O20           -0.0971    -4.9863    14.2431 O.2     
  21 C21            0.0652    -1.8218     4.1513 C.3     
  22 C22           -0.6121    -3.1241     4.6000 C.3     
  23 C23            1.1695     2.2099     0.0028 C.ar    
  24 C24           -1.2250     2.1774     0.0197 C.ar    
  25 C25           -1.2444     3.5593     0.0268 C.ar    
  26 C26           -0.0559     4.2676     0.0251 C.ar    
  27 C27            1.1514     3.5919     0.0104 C.ar    
  28 Cl28          -0.0794     6.0034     0.0335 Cl      
  29 H29           -0.8878    -0.3767    -0.5053 H       
  30 H30            0.8920    -0.3525    -0.5222 H       
  31 H31           -0.5277    -4.4217     2.8150 H       
  32 H32            1.0903    -4.0723     3.5609 H       
  33 H33            0.9473    -3.3756     6.0648 H       
  34 H34           -0.1558    -4.7649     5.9193 H       
  35 H35           -2.1044    -2.4200     9.1944 H       
  36 H36            1.0756    -4.7917     7.6053 H       
  37 H37            1.6778    -5.5113     9.8801 H       
  38 H38            1.3454    -5.1500    12.2867 H       
  39 H39           -2.4501    -4.8739    12.5414 H       
  40 H40           -2.1730    -3.6523    13.8037 H       
  41 H41           -1.2274    -2.1090    12.2157 H       
  42 H42           -2.7297    -2.7306    11.4920 H       
  43 H43            1.0662    -1.6894     4.5619 H       
  44 H44           -0.5629    -0.9400     4.2776 H       
  45 H45           -1.7000    -3.1076     4.5345 H       
  46 H46            2.1118     1.6824    -0.0087 H       
  47 H47           -2.1527     1.6244     0.0211 H       
  48 H48           -2.1871     4.0862     0.0335 H       
  49 H49            2.0795     4.1442     0.0093 H       
@<TRIPOS>BOND
   1    1    2 1
   2    1   23 ar
   3    1   24 ar
   4    2    3 1
   5    2   29 1
   6    2   30 1
   7    3    6 1
   8    4    5 1
   9    4   22 1
  10    4   31 1
  11    4   32 1
  12    5    6 am
  13    5   21 1
  14    6   19 2
  15    7    8 1
  16    7   22 1
  17    7   33 1
  18    7   34 1
  19    8    9 1
  20    9   10 ar
  21    9   11 ar
  22   10   14 ar
  23   10   35 1
  24   11   12 ar
  25   11   36 1
  26   12   13 ar
  27   12   37 1
  28   13   14 ar
  29   13   15 1
  30   14   18 1
  31   15   16 am
  32   15   38 1
  33   16   17 1
  34   16   20 2
  35   17   18 1
  36   17   39 1
  37   17   40 1
  38   18   41 1
  39   18   42 1
  40   21   22 1
  41   21   43 1
  42   21   44 1
  43   22   45 1
  44   23   27 ar
  45   23   46 1
  46   24   25 ar
  47   24   47 1
  48   25   26 ar
  49   25   48 1
  50   26   27 ar
  51   26   28 1
  52   27   49 1

#	End of record

