#	Name: ASD01140609
#	Creating user name:	WinNT
#	Creation time:	15. 06. 2019 19:01

#	Modifying user name:	WinNT
#	Modification time:	15. 06. 2019 19:01

#	Program:	/corina/corina34_cracker 3.40 0067  02.08.2006

@<TRIPOS>MOLECULE
ASD01140609
  48   51    0    0    0
SMALL
NO_CHARGES


@<TRIPOS>ATOM
   1 C1             0.1032     1.4766     0.6975 C.ar    
   2 C2             0.8410     0.9281     1.7607 C.ar    
   3 C3             1.9807     0.2321     1.5024 C.ar    
   4 C4             2.4318     0.0529     0.1913 C.ar    
   5 C5             1.7393     0.5724    -0.8653 C.ar    
   6 C6             0.5586     1.2961    -0.6329 C.ar    
   7 C7            -0.1811     1.8451    -1.6949 C.ar    
   8 C8            -1.3211     2.5404    -1.4328 C.ar    
   9 C9            -1.7685     2.7182    -0.1248 C.ar    
  10 C10           -1.0817     2.1963     0.9280 C.ar    
  11 O11            3.5747    -0.6471    -0.0349 O.3     
  12 C12            3.5002    -1.9840     0.0634 C.2     
  13 C13            4.7486    -2.8193    -0.0587 C.3     
  14 O14            2.4322    -2.5175     0.2496 O.2     
  15 C15            3.5711    -4.6945    -1.0394 C.3     
  16 N16            4.3767    -6.9797    -0.6900 N.3     
  17 C17            5.2088    -6.5252     0.4329 C.3     
  18 C18            5.6121    -5.0661     0.2075 C.3     
  19 N19            4.4031    -4.2400     0.0835 N.3     
  20 C20            3.1677    -6.1536    -0.8140 C.3     
  21 C21            4.5046    -9.0517     0.5412 C.ar    
  22 C22            3.3971   -11.0065    -0.2869 C.ar    
  23 C23            2.9407   -10.2914    -1.3790 C.ar    
  24 C24            3.2640    -8.9558    -1.5159 C.ar    
  25 C25            4.0482    -8.3306    -0.5548 C.ar    
  26 C26            4.1776   -10.3871     0.6720 C.ar    
  27 H27            0.5045     1.0590     2.7785 H       
  28 H28            2.5453    -0.1877     2.3218 H       
  29 H29            2.0979     0.4277    -1.8737 H       
  30 H30            0.1539     1.7159    -2.7135 H       
  31 H31           -1.8875     2.9611    -2.2505 H       
  32 H32           -2.6761     3.2749     0.0558 H       
  33 H33           -1.4432     2.3381     1.9357 H       
  34 H34            5.2037    -2.6519    -1.0349 H       
  35 H35            5.4528    -2.5365     0.7238 H       
  36 H36            2.6762    -4.0755    -1.1028 H       
  37 H37            4.1367    -4.6127    -1.9675 H       
  38 H38            4.6432    -6.6070     1.3610 H       
  39 H39            6.1037    -7.1442     0.4963 H       
  40 H40            6.2052    -4.7180     1.0532 H       
  41 H41            6.2009    -4.9886    -0.7065 H       
  42 H42            2.5789    -6.2311     0.1000 H       
  43 H43            2.5746    -6.5017    -1.6597 H       
  44 H44            5.1182    -8.5698     1.2880 H       
  45 H45            3.1425   -12.0508    -0.1820 H       
  46 H46            2.3316   -10.7783    -2.1263 H       
  47 H47            2.9079    -8.3981    -2.3695 H       
  48 H48            4.5321   -10.9483     1.5239 H       
@<TRIPOS>BOND
   1    1    2 ar
   2    1    6 ar
   3    1   10 ar
   4    2    3 ar
   5    2   27 1
   6    3    4 ar
   7    3   28 1
   8    4    5 ar
   9    4   11 1
  10    5    6 ar
  11    5   29 1
  12    6    7 ar
  13    7    8 ar
  14    7   30 1
  15    8    9 ar
  16    8   31 1
  17    9   10 ar
  18    9   32 1
  19   10   33 1
  20   11   12 1
  21   12   13 1
  22   12   14 2
  23   13   19 1
  24   13   34 1
  25   13   35 1
  26   15   20 1
  27   15   19 1
  28   15   36 1
  29   15   37 1
  30   16   17 1
  31   16   20 1
  32   16   25 1
  33   17   18 1
  34   17   38 1
  35   17   39 1
  36   18   19 1
  37   18   40 1
  38   18   41 1
  39   20   42 1
  40   20   43 1
  41   21   26 ar
  42   21   25 ar
  43   21   44 1
  44   22   23 ar
  45   22   26 ar
  46   22   45 1
  47   23   24 ar
  48   23   46 1
  49   24   25 ar
  50   24   47 1
  51   26   48 1

#	End of record

