#	Name: ASD07930797
#	Creating user name:	WinNT
#	Creation time:	15. 06. 2019 21:13

#	Modifying user name:	WinNT
#	Modification time:	15. 06. 2019 21:13

#	Program:	/corina/corina34_cracker 3.40 0067  02.08.2006

@<TRIPOS>MOLECULE
ASD07930797
  48   50    0    0    0
SMALL
NO_CHARGES


@<TRIPOS>ATOM
   1 C1             2.9713    -1.1785    -1.4902 C.3     
   2 N2             2.4546    -3.0909     0.7429 N.2     
   3 N3             0.4221    -3.4517    -0.3526 N.pl3   
   4 C4            -0.9005    -2.8248    -0.2586 C.3     
   5 C5            -0.9791    -1.6578    -1.2526 C.3     
   6 S6             0.3867    -0.5089    -0.8937 S.o2    
   7 N7             1.7095    -1.5201    -0.8289 N.am    
   8 C8             1.5566    -2.7020    -0.1180 C.2     
   9 C9            -1.1179    -2.3011     1.1624 C.3     
  10 C10           -1.9634    -3.8404    -0.5898 C.ar    
  11 C11           -2.7939    -3.6312    -1.6682 C.ar    
  12 C12           -3.7770    -4.5649    -1.9791 C.ar    
  13 C13           -3.9125    -5.7175    -1.1849 C.ar    
  14 C14           -3.0630    -5.9170    -0.0943 C.ar    
  15 C15           -2.0923    -4.9822     0.1930 C.ar    
  16 F16           -1.2681    -5.1712     1.2467 F       
  17 N17           -4.7354    -4.6375    -2.9668 N.pl3   
  18 C18           -5.4641    -5.7865    -2.8238 C.2     
  19 C19           -5.0177    -6.4830    -1.7666 C.2     
  20 C20           -6.5999    -6.2078    -3.7203 C.3     
  21 O21            0.6386     0.3384    -2.0064 O.2     
  22 O22            0.2724     0.0151     0.4222 O.2     
  23 C23           -6.0893    -6.3556    -5.1550 C.3     
  24 C24           -7.1605    -7.5472    -3.2379 C.3     
  25 C25           -7.7029    -5.1484    -3.6781 C.3     
  26 H26            3.6040    -0.6208    -0.7997 H       
  27 H27            3.4818    -2.0927    -1.7931 H       
  28 H28            2.7670    -0.5679    -2.3697 H       
  29 H29            3.2460    -2.5512     0.8955 H       
  30 H30            0.4991    -4.3926    -0.5753 H       
  31 H31           -0.8839    -2.0353    -2.2707 H       
  32 H32           -1.9326    -1.1420    -1.1391 H       
  33 H33           -0.3496    -1.5652     1.3999 H       
  34 H34           -2.1009    -1.8354     1.2316 H       
  35 H35           -1.0579    -3.1297     1.8681 H       
  36 H36           -2.6823    -2.7427    -2.2719 H       
  37 H37           -3.1641    -6.8007     0.5183 H       
  38 H38           -4.8727    -3.9730    -3.6600 H       
  39 H39           -5.4007    -7.4286    -1.4122 H       
  40 H40           -5.3034    -7.1104    -5.1850 H       
  41 H41           -6.9107    -6.6603    -5.8034 H       
  42 H42           -5.6899    -5.4014    -5.4986 H       
  43 H43           -7.5242    -7.4419    -2.2158 H       
  44 H44           -7.9819    -7.8519    -3.8863 H       
  45 H45           -6.3746    -8.3020    -3.2680 H       
  46 H46           -7.3035    -4.1942    -4.0217 H       
  47 H47           -8.5243    -5.4531    -4.3265 H       
  48 H48           -8.0666    -5.0431    -2.6560 H       
@<TRIPOS>BOND
   1    1    7 1
   2    1   26 1
   3    1   27 1
   4    1   28 1
   5    2    8 2
   6    2   29 1
   7    3    4 1
   8    3    8 1
   9    3   30 1
  10    4    5 1
  11    4    9 1
  12    4   10 1
  13    5    6 1
  14    5   31 1
  15    5   32 1
  16    6    7 am
  17    6   21 2
  18    6   22 2
  19    7    8 1
  20    9   33 1
  21    9   34 1
  22    9   35 1
  23   10   11 ar
  24   10   15 ar
  25   11   12 ar
  26   11   36 1
  27   12   13 ar
  28   12   17 1
  29   13   14 ar
  30   13   19 1
  31   14   15 ar
  32   14   37 1
  33   15   16 1
  34   17   18 1
  35   17   38 1
  36   18   19 2
  37   18   20 1
  38   19   39 1
  39   20   23 1
  40   20   25 1
  41   20   24 1
  42   23   40 1
  43   23   41 1
  44   23   42 1
  45   24   43 1
  46   24   44 1
  47   24   45 1
  48   25   46 1
  49   25   47 1
  50   25   48 1

#	End of record

