#	Name: ASD02408081
#	Creating user name:	WinNT
#	Creation time:	15. 06. 2019 20:21

#	Modifying user name:	WinNT
#	Modification time:	15. 06. 2019 20:21

#	Program:	/corina/corina34_cracker 3.40 0067  02.08.2006

@<TRIPOS>MOLECULE
ASD02408081
  49   51    0    0    0
SMALL
NO_CHARGES


@<TRIPOS>ATOM
   1 C1            -0.0167     1.3779     0.0096 C.ar    
   2 C2             0.0021    -0.0041     0.0020 C.ar    
   3 C3             1.2780     2.1491     0.0014 C.3     
   4 C4             1.6960     2.4138    -1.4221 C.2     
   5 N5             2.8356     3.0950    -1.6501 N.am    
   6 N6             0.9446     1.9707    -2.3931 N.2     
   7 C7             1.2664     2.1757    -3.6768 C.2     
   8 C8             2.4394     2.8837    -3.9865 C.2     
   9 C9             3.2403     3.3495    -2.9123 C.2     
  10 N10            0.4585     1.6984    -4.6796 N.pl3   
  11 C11           -0.7628     0.9606    -4.3476 C.3     
  12 O12            4.2683     3.9691    -3.1242 O.2     
  13 C13           -1.1857    -0.7116     0.0096 C.ar    
  14 C14           -2.3919    -0.0369     0.0253 C.ar    
  15 C15           -2.4106     1.3455     0.0338 C.ar    
  16 C16           -1.2233     2.0528     0.0190 C.ar    
  17 C17           -1.1653    -2.2184     0.0003 C.3     
  18 C18           -1.7611     1.0816    -5.5008 C.3     
  19 C19           -3.0366     0.3110    -5.1542 C.3     
  20 C20           -2.6960    -1.1632    -4.9271 C.3     
  21 C21           -1.6977    -1.2842    -3.7739 C.3     
  22 C22           -0.4222    -0.5136    -4.1205 C.3     
  23 C23           -3.9715    -1.9338    -4.5804 C.3     
  24 F24           -4.8843    -1.8231    -5.6348 F       
  25 F25           -3.6601    -3.2818    -4.3728 F       
  26 F26           -4.5365    -1.4011    -3.4167 F       
  27 C27            2.8182     3.1236    -5.3464 C.1     
  28 N28            3.1188     3.3140    -6.4253 N.1     
  29 H29            0.9446    -0.5313    -0.0102 H       
  30 H30            1.1397     3.0969     0.5217 H       
  31 H31            2.0505     1.5677     0.5048 H       
  32 H32            3.3691     3.4052    -0.9017 H       
  33 H33            0.6966     1.8499    -5.6076 H       
  34 H34           -1.2030     1.3756    -3.4410 H       
  35 H35           -3.3198    -0.5895     0.0305 H       
  36 H36           -3.3531     1.8727     0.0456 H       
  37 H37           -1.2379     3.1327     0.0256 H       
  38 H38           -1.1501    -2.5879     1.0257 H       
  39 H39           -2.0553    -2.5907    -0.5069 H       
  40 H40           -0.2756    -2.5665    -0.5245 H       
  41 H41           -2.0037     2.1319    -5.6626 H       
  42 H42           -1.3209     0.6666    -6.4075 H       
  43 H43           -3.4768     0.7261    -4.2475 H       
  44 H44           -3.7478     0.3972    -5.9757 H       
  45 H45           -2.2558    -1.5783    -5.8337 H       
  46 H46           -2.1379    -0.8692    -2.8672 H       
  47 H47           -1.4551    -2.3345    -3.6121 H       
  48 H48            0.0179    -0.9287    -5.0272 H       
  49 H49            0.2889    -0.5999    -3.2990 H       
@<TRIPOS>BOND
   1    1    2 ar
   2    1    3 1
   3    1   16 ar
   4    2   13 ar
   5    2   29 1
   6    3    4 1
   7    3   30 1
   8    3   31 1
   9    4    5 1
  10    4    6 2
  11    5    9 am
  12    5   32 1
  13    6    7 1
  14    7    8 2
  15    7   10 1
  16    8    9 1
  17    8   27 1
  18    9   12 2
  19   10   11 1
  20   10   33 1
  21   11   18 1
  22   11   22 1
  23   11   34 1
  24   13   14 ar
  25   13   17 1
  26   14   15 ar
  27   14   35 1
  28   15   16 ar
  29   15   36 1
  30   16   37 1
  31   17   38 1
  32   17   39 1
  33   17   40 1
  34   18   19 1
  35   18   41 1
  36   18   42 1
  37   19   20 1
  38   19   43 1
  39   19   44 1
  40   20   21 1
  41   20   23 1
  42   20   45 1
  43   21   22 1
  44   21   46 1
  45   21   47 1
  46   22   48 1
  47   22   49 1
  48   23   24 1
  49   23   25 1
  50   23   26 1
  51   27   28 3

#	End of record

