#	Name: ASD03912048
#	Creating user name:	WinNT
#	Creation time:	15. 06. 2019 20:47

#	Modifying user name:	WinNT
#	Modification time:	15. 06. 2019 20:47

#	Program:	/corina/corina34_cracker 3.40 0067  02.08.2006

@<TRIPOS>MOLECULE
ASD03912048
  76   79    0    0    0
SMALL
NO_CHARGES


@<TRIPOS>ATOM
   1 C1             0.5532    16.2611    -5.1792 C.ar    
   2 C2             0.9687    16.4377    -6.4862 C.ar    
   3 C3             1.5376    15.3867    -7.1819 C.ar    
   4 C4             1.6922    14.1567    -6.5730 C.ar    
   5 C5             1.2760    13.9762    -5.2605 C.ar    
   6 C6             0.7106    15.0353    -4.5626 C.ar    
   7 C7            -0.0663    17.4092    -4.4247 C.3     
   8 C8             1.9890    15.5835    -8.6062 C.3     
   9 N9             1.4312    12.7313    -4.6407 N.am    
  10 C10            0.5125    12.3011    -3.7534 C.2     
  11 C11            0.6273    10.9211    -3.1590 C.3     
  12 O12           -0.4068    13.0247    -3.4332 O.2     
  13 C13           -0.5152    10.6886    -2.2043 C.ar    
  14 C14           -1.6985    10.1408    -2.6643 C.ar    
  15 C15           -2.7473     9.9267    -1.7911 C.ar    
  16 C16           -2.6126    10.2618    -0.4516 C.ar    
  17 C17           -1.4244    10.8114     0.0074 C.ar    
  18 C18           -0.3765    11.0182    -0.8687 C.ar    
  19 O19           -3.6431    10.0526     0.4093 O.3     
  20 C20           -3.4153    10.3712     1.7836 C.3     
  21 C21           -2.2516     9.5727     2.3121 C.2     
  22 C22           -3.1344    11.8764     1.9362 C.3     
  23 C23           -4.2402    12.4403     2.8522 C.3     
  24 C24           -4.7267    11.2121     3.6608 C.3     
  25 C25           -4.6815    10.0718     2.6124 C.3     
  26 N26           -2.0627     8.3034     1.9001 N.am    
  27 O27           -1.4851    10.0723     3.1082 O.2     
  28 C28           -0.8779     7.5604     2.3363 C.3     
  29 C29           -1.1455     6.9318     3.6796 C.2     
  30 O30           -2.2160     7.0884     4.2174 O.2     
  31 O31           -0.1945     6.1979     4.2785 O.3     
  32 C32           -0.5578     6.4663     1.3159 C.3     
  33 C33            0.6519     6.2730    -2.6950 C.ar    
  34 C34            1.9848     6.5046    -2.9787 C.ar    
  35 C35            2.3582     6.9410    -4.2361 C.ar    
  36 C36            1.3986     7.1452    -5.2100 C.ar    
  37 C37            0.0658     6.9127    -4.9266 C.ar    
  38 C38           -0.3071     6.4722    -3.6705 C.ar    
  39 S39           -0.0917     7.2292    -0.2625 S.3     
  40 C40            0.2448     5.7973    -1.3242 C.3     
  41 H41            0.8483    17.3983    -6.9648 H       
  42 H42            2.1360    13.3361    -7.1172 H       
  43 H43            0.3863    14.8982    -3.5416 H       
  44 H44           -1.1456    17.4035    -4.5766 H       
  45 H45            0.1516    17.3052    -3.3618 H       
  46 H46            0.3471    18.3493    -4.7900 H       
  47 H47            3.0278    15.9135    -8.6158 H       
  48 H48            1.9018    14.6420    -9.1484 H       
  49 H49            1.3639    16.3375    -9.0846 H       
  50 H50            2.1999    12.1780    -4.8497 H       
  51 H51            0.5918    10.1782    -3.9559 H       
  52 H52            1.5723    10.8339    -2.6229 H       
  53 H53           -1.8029     9.8804    -3.7072 H       
  54 H54           -3.6715     9.4991    -2.1510 H       
  55 H55           -1.3171    11.0731     1.0497 H       
  56 H56            0.5487    11.4460    -0.5118 H       
  57 H57           -2.1568    12.0293     2.3933 H       
  58 H58           -3.1719    12.3638     0.9620 H       
  59 H59           -3.8322    13.1993     3.5197 H       
  60 H60           -5.0551    12.8525     2.2571 H       
  61 H61           -4.0497    11.0018     4.4887 H       
  62 H62           -5.7438    11.3653     4.0214 H       
  63 H63           -5.5676    10.1012     1.9783 H       
  64 H64           -4.5960     9.1035     3.1054 H       
  65 H65           -2.7113     7.8819     1.3148 H       
  66 H66           -0.0308     8.2417     2.4163 H       
  67 H67           -0.4125     5.8149     5.1393 H       
  68 H68            0.2684     5.8574     1.6831 H       
  69 H69           -1.4360     5.8373     1.1701 H       
  70 H70            2.7345     6.3451    -2.2178 H       
  71 H71            3.3995     7.1227    -4.4575 H       
  72 H72            1.6902     7.4868    -6.1921 H       
  73 H73           -0.6840     7.0726    -5.6873 H       
  74 H74           -1.3485     6.2905    -3.4490 H       
  75 H75           -0.6534     5.1850    -1.4039 H       
  76 H76            1.0509     5.2051    -0.8909 H       
@<TRIPOS>BOND
   1    1    2 ar
   2    1    7 1
   3    1    6 ar
   4    2    3 ar
   5    2   41 1
   6    3    4 ar
   7    3    8 1
   8    4    5 ar
   9    4   42 1
  10    5    6 ar
  11    5    9 1
  12    6   43 1
  13    7   44 1
  14    7   45 1
  15    7   46 1
  16    8   47 1
  17    8   48 1
  18    8   49 1
  19    9   10 am
  20    9   50 1
  21   10   11 1
  22   10   12 2
  23   11   13 1
  24   11   51 1
  25   11   52 1
  26   13   14 ar
  27   13   18 ar
  28   14   15 ar
  29   14   53 1
  30   15   16 ar
  31   15   54 1
  32   16   17 ar
  33   16   19 1
  34   17   18 ar
  35   17   55 1
  36   18   56 1
  37   19   20 1
  38   20   21 1
  39   20   22 1
  40   20   25 1
  41   21   26 am
  42   21   27 2
  43   22   23 1
  44   22   57 1
  45   22   58 1
  46   23   24 1
  47   23   59 1
  48   23   60 1
  49   24   25 1
  50   24   61 1
  51   24   62 1
  52   25   63 1
  53   25   64 1
  54   26   28 1
  55   26   65 1
  56   28   29 1
  57   28   32 1
  58   28   66 1
  59   29   30 2
  60   29   31 1
  61   31   67 1
  62   32   39 1
  63   32   68 1
  64   32   69 1
  65   33   34 ar
  66   33   40 1
  67   33   38 ar
  68   34   35 ar
  69   34   70 1
  70   35   36 ar
  71   35   71 1
  72   36   37 ar
  73   36   72 1
  74   37   38 ar
  75   37   73 1
  76   38   74 1
  77   39   40 1
  78   40   75 1
  79   40   76 1

#	End of record

