#	Name: ASD01410279
#	Creating user name:	WinNT
#	Creation time:	15. 06. 2019 19:17

#	Modifying user name:	WinNT
#	Modification time:	15. 06. 2019 19:17

#	Program:	/corina/corina34_cracker 3.40 0067  02.08.2006

@<TRIPOS>MOLECULE
ASD01410279
  68   72    0    0    0
SMALL
NO_CHARGES


@<TRIPOS>ATOM
   1 C1             0.6133     1.5231     0.1712 C.2     
   2 C2             1.6151     0.6631     0.4155 C.2     
   3 C3             1.1653    -0.6382    -0.0965 C.2     
   4 C4            -0.0799    -0.4237    -0.6039 C.2     
   5 O5            -0.3890     0.8681    -0.4346 O.3     
   6 N6             1.3706    -3.1040    -0.1812 N.2     
   7 C7             1.9094    -1.9143    -0.0674 C.2     
   8 N8             3.2658    -2.0318     0.0819 N.pl3   
   9 C9             3.5660    -3.3780     0.0569 C.ar    
  10 C10            2.3408    -4.0501    -0.1123 C.ar    
  11 C11            4.7496    -4.0997     0.1600 C.ar    
  12 C12            4.7296    -5.4630     0.0973 C.ar    
  13 C13            3.5195    -6.1487    -0.0712 C.ar    
  14 C14            2.3244    -5.4436    -0.1754 C.ar    
  15 C15            6.3111     0.0985    -0.6622 C.3     
  16 C16            6.9441     0.0303     0.7291 C.3     
  17 C17            5.8509     0.1487     1.7931 C.3     
  18 C18            4.8536    -1.0000     1.6297 C.3     
  19 C19            4.2207    -0.9318     0.2384 C.3     
  20 C20            5.3138    -1.0503    -0.8256 C.3     
  21 C21            3.5122    -7.6239    -0.1379 C.2     
  22 N22            4.6686    -8.3087    -0.0368 N.am    
  23 O23            2.4631    -8.2206    -0.2841 O.2     
  24 C24            4.6614    -9.7722    -0.1030 C.3     
  25 C25            4.6966   -10.2167    -1.5665 C.3     
  26 C26            5.8705   -10.3135     0.6156 C.2     
  27 N27            6.0740   -11.6440     0.6842 N.am    
  28 O28            6.6604    -9.5518     1.1321 O.2     
  29 C29            7.8363   -13.2937     0.7656 C.ar    
  30 C30            8.9897   -13.7844     1.3454 C.ar    
  31 C31            9.5531   -13.1323     2.4269 C.ar    
  32 C32            8.9641   -11.9874     2.9312 C.ar    
  33 C33            7.8111   -11.4910     2.3553 C.ar    
  34 C34            7.2426   -12.1438     1.2694 C.ar    
  35 C35           10.8115   -13.6709     3.0574 C.3     
  36 C36           12.0126   -13.0593     2.3834 C.2     
  37 O37           11.8622   -12.2674     1.4833 O.2     
  38 O38           13.2495   -13.3944     2.7829 O.3     
  39 H39            0.6125     2.5727     0.4257 H       
  40 H40            2.5592     0.8832     0.8915 H       
  41 H41           -0.7110    -1.1689    -1.0653 H       
  42 H42            5.6875    -3.5802     0.2897 H       
  43 H43            5.6532    -6.0170     0.1778 H       
  44 H44            1.3910    -5.9713    -0.3053 H       
  45 H45            5.7919     1.0497    -0.7789 H       
  46 H46            7.0899     0.0141    -1.4201 H       
  47 H47            7.4632    -0.9209     0.8459 H       
  48 H48            7.6546     0.8487     0.8455 H       
  49 H49            6.3019     0.1002     2.7842 H       
  50 H50            5.3318     1.1000     1.6763 H       
  51 H51            5.3728    -1.9513     1.7464 H       
  52 H52            4.0749    -0.9156     2.3876 H       
  53 H53            3.7015     0.0194     0.1216 H       
  54 H54            4.8629    -1.0017    -1.8167 H       
  55 H55            5.8330    -2.0015    -0.7088 H       
  56 H56            5.5056    -7.8326     0.0799 H       
  57 H57            3.7566   -10.1529     0.3708 H       
  58 H58            5.6014    -9.8360    -2.0403 H       
  59 H59            4.6912   -11.3056    -1.6158 H       
  60 H60            3.8221    -9.8252    -2.0862 H       
  61 H61            5.4103   -12.2552     0.3279 H       
  62 H62            7.3990   -13.8011    -0.0816 H       
  63 H63            9.4519   -14.6786     0.9541 H       
  64 H64            9.4062   -11.4808     3.7764 H       
  65 H65            7.3514   -10.5970     2.7499 H       
  66 H66           10.8228   -13.4194     4.1180 H       
  67 H67           10.8416   -14.7542     2.9405 H       
  68 H68           13.9886   -12.9760     2.3205 H       
@<TRIPOS>BOND
   1    1    2 2
   2    1    5 1
   3    1   39 1
   4    2    3 1
   5    2   40 1
   6    3    4 2
   7    3    7 1
   8    4    5 1
   9    4   41 1
  10    6    7 2
  11    6   10 1
  12    7    8 1
  13    8    9 1
  14    8   19 1
  15    9   10 ar
  16    9   11 ar
  17   10   14 ar
  18   11   12 ar
  19   11   42 1
  20   12   13 ar
  21   12   43 1
  22   13   14 ar
  23   13   21 1
  24   14   44 1
  25   15   16 1
  26   15   20 1
  27   15   45 1
  28   15   46 1
  29   16   17 1
  30   16   47 1
  31   16   48 1
  32   17   18 1
  33   17   49 1
  34   17   50 1
  35   18   19 1
  36   18   51 1
  37   18   52 1
  38   19   20 1
  39   19   53 1
  40   20   54 1
  41   20   55 1
  42   21   22 am
  43   21   23 2
  44   22   24 1
  45   22   56 1
  46   24   25 1
  47   24   26 1
  48   24   57 1
  49   25   58 1
  50   25   59 1
  51   25   60 1
  52   26   27 am
  53   26   28 2
  54   27   34 1
  55   27   61 1
  56   29   30 ar
  57   29   34 ar
  58   29   62 1
  59   30   31 ar
  60   30   63 1
  61   31   32 ar
  62   31   35 1
  63   32   33 ar
  64   32   64 1
  65   33   34 ar
  66   33   65 1
  67   35   36 1
  68   35   66 1
  69   35   67 1
  70   36   37 2
  71   36   38 1
  72   38   68 1

#	End of record

