#	Name: ASD01028372
#	Creating user name:	WinNT
#	Creation time:	15. 06. 2019 18:57

#	Modifying user name:	WinNT
#	Modification time:	15. 06. 2019 18:57

#	Program:	/corina/corina34_cracker 3.40 0067  02.08.2006

@<TRIPOS>MOLECULE
ASD01028372
  48   52    0    0    0
SMALL
NO_CHARGES


@<TRIPOS>ATOM
   1 C1            -0.0171     1.4118     0.0098 C.ar    
   2 C2             0.0021    -0.0041     0.0020 C.ar    
   3 C3             1.2105     2.1116     0.0018 C.ar    
   4 C4             2.3793     1.3714    -0.0133 C.ar    
   5 C5             2.3160    -0.0162    -0.0202 C.ar    
   6 N6             1.1704    -0.6565    -0.0123 N.ar    
   7 O7             1.2420     3.4670     0.0084 O.3     
   8 C8             2.5299     4.0861    -0.0005 C.3     
   9 C9             2.3673     5.5842     0.0086 C.2     
  10 N10            2.2910     6.3757     1.1078 N.pl3   
  11 C11            2.1481     7.6607     0.6385 C.2     
  12 N12            2.1449     7.5878    -0.6821 N.2     
  13 N13            2.2795     6.3597    -1.0432 N.2     
  14 N14            2.3290     6.1320     2.4819 N.2     
  15 C15            2.2289     7.1252     3.3381 C.2     
  16 C16            2.0814     8.4546     2.8878 C.2     
  17 C17            2.0415     8.7230     1.5560 C.2     
  18 C18            2.2709     6.8450     4.7935 C.ar    
  19 C19           -1.2152    -0.7043     0.0100 C.ar    
  20 C20           -2.4012    -0.0065     0.0251 C.ar    
  21 C21           -2.4085     1.3917     0.0322 C.ar    
  22 C22           -1.2431     2.0938     0.0309 C.ar    
  23 O23           -3.5786    -0.6840     0.0328 O.3     
  24 C24           -4.7758     0.0961     0.0485 C.3     
  25 C25            2.4161     5.5331     5.2465 C.ar    
  26 C26            2.3492     6.3208     7.5160 C.ar    
  27 C27            2.2103     7.6365     7.0593 C.ar    
  28 C28            2.1711     7.8941     5.7081 C.ar    
  29 C29            2.4550     5.2707     6.5968 C.ar    
  30 C30            2.3914     6.0429     8.9596 C.2     
  31 O31            2.5118     4.9026     9.3543 O.2     
  32 H32            3.3370     1.8705    -0.0202 H       
  33 H33            3.2348    -0.5838    -0.0321 H       
  34 H34            3.0883     3.7758     0.8827 H       
  35 H35            3.0716     3.7849    -0.8972 H       
  36 H36            2.0000     9.2600     3.6027 H       
  37 H37            1.9286     9.7385     1.2061 H       
  38 H38           -1.2205    -1.7843     0.0039 H       
  39 H39           -3.3501     1.9205     0.0433 H       
  40 H40           -1.2617     3.1736     0.0364 H       
  41 H41           -5.6412    -0.5666     0.0533 H       
  42 H42           -4.7911     0.7202     0.9420 H       
  43 H43           -4.8082     0.7297    -0.8378 H       
  44 H44            2.4976     4.7232     4.5368 H       
  45 H45            2.1337     8.4489     7.7668 H       
  46 H46            2.0632     8.9091     5.3552 H       
  47 H47            2.5666     4.2551     6.9469 H       
  48 H48            2.3152     6.8544     9.6681 H       
@<TRIPOS>BOND
   1    1    2 ar
   2    1    3 ar
   3    1   22 ar
   4    2   19 ar
   5    2    6 ar
   6    3    4 ar
   7    3    7 1
   8    4    5 ar
   9    4   32 1
  10    5    6 ar
  11    5   33 1
  12    7    8 1
  13    8    9 1
  14    8   34 1
  15    8   35 1
  16    9   10 1
  17    9   13 2
  18   10   11 1
  19   10   14 1
  20   11   12 2
  21   11   17 1
  22   12   13 1
  23   14   15 2
  24   15   16 1
  25   15   18 1
  26   16   17 2
  27   16   36 1
  28   17   37 1
  29   18   25 ar
  30   18   28 ar
  31   19   20 ar
  32   19   38 1
  33   20   21 ar
  34   20   23 1
  35   21   22 ar
  36   21   39 1
  37   22   40 1
  38   23   24 1
  39   24   41 1
  40   24   42 1
  41   24   43 1
  42   25   29 ar
  43   25   44 1
  44   26   27 ar
  45   26   30 1
  46   26   29 ar
  47   27   28 ar
  48   27   45 1
  49   28   46 1
  50   29   47 1
  51   30   31 2
  52   30   48 1

#	End of record

