#	Name: ASD05313212
#	Creating user name:	WinNT
#	Creation time:	15. 06. 2019 20:58

#	Modifying user name:	WinNT
#	Modification time:	15. 06. 2019 20:58

#	Program:	/corina/corina34_cracker 3.40 0067  02.08.2006

@<TRIPOS>MOLECULE
ASD05313212
  33   35    0    0    0
SMALL
NO_CHARGES


@<TRIPOS>ATOM
   1 C1            -0.0740     0.8194     1.0251 C.2     
   2 C2             0.1126    -0.6188     0.5970 C.3     
   3 N3             0.9270     1.7312     1.0515 N.pl3   
   4 N4             1.4555    -0.7201    -0.0037 N.am    
   5 C5             2.5692    -0.0390     0.6738 C.3     
   6 C6             2.3152     1.4726     0.6634 C.3     
   7 N7            -1.1711     1.3905     1.4250 N.2     
   8 C8            -0.9162     2.6754     1.7217 C.2     
   9 C9             0.3929     2.9054     1.4950 C.2     
  10 C10           -1.9180     3.6834     2.2231 C.3     
  11 F11           -3.1454     3.0500     2.4458 F       
  12 F12           -1.4578     4.2425     3.4201 F       
  13 F13           -2.0808     4.6934     1.2689 F       
  14 C14            1.6565    -1.4168    -1.1398 C.2     
  15 O15            2.7488    -1.4075    -1.6733 O.2     
  16 C16            0.5496    -2.1916    -1.7367 C.ar    
  17 C17            0.3198    -2.1400    -3.1144 C.ar    
  18 C18           -0.7166    -2.8667    -3.6654 C.ar    
  19 C19           -1.5267    -3.6450    -2.8559 C.ar    
  20 C20           -1.3033    -3.6998    -1.4898 C.ar    
  21 C21           -0.2680    -2.9833    -0.9278 C.ar    
  22 Cl22          -2.8283    -4.5557    -3.5560 Cl      
  23 Cl23           1.3346    -1.1640    -4.1299 Cl      
  24 H24            0.0423    -1.2767     1.4632 H       
  25 H25           -0.6450    -0.8890    -0.1387 H       
  26 H26            2.6383    -0.3896     1.7036 H       
  27 H27            3.5008    -0.2554     0.1509 H       
  28 H28            2.4922     1.8645    -0.3382 H       
  29 H29            2.9874     1.9596     1.3698 H       
  30 H30            0.9177     3.8382     1.6392 H       
  31 H31           -0.8960    -2.8279    -4.7297 H       
  32 H32           -1.9389    -4.3088    -0.8641 H       
  33 H33           -0.0924    -3.0310     0.1368 H       
@<TRIPOS>BOND
   1    1    2 1
   2    1    3 1
   3    1    7 2
   4    2    4 1
   5    2   24 1
   6    2   25 1
   7    3    6 1
   8    3    9 1
   9    4    5 1
  10    4   14 am
  11    5    6 1
  12    5   26 1
  13    5   27 1
  14    6   28 1
  15    6   29 1
  16    7    8 1
  17    8    9 2
  18    8   10 1
  19    9   30 1
  20   10   11 1
  21   10   12 1
  22   10   13 1
  23   14   15 2
  24   14   16 1
  25   16   17 ar
  26   16   21 ar
  27   17   18 ar
  28   17   23 1
  29   18   19 ar
  30   18   31 1
  31   19   20 ar
  32   19   22 1
  33   20   21 ar
  34   20   32 1
  35   21   33 1

#	End of record

