#	Name: ASD03091328
#	Creating user name:	WinNT
#	Creation time:	15. 06. 2019 20:30

#	Modifying user name:	WinNT
#	Modification time:	15. 06. 2019 20:30

#	Program:	/corina/corina34_cracker 3.40 0067  02.08.2006

@<TRIPOS>MOLECULE
ASD03091328
  38   40    0    0    0
SMALL
NO_CHARGES


@<TRIPOS>ATOM
   1 N1            -0.0163     1.3545     0.0095 N.pl3   
   2 C2             0.0021    -0.0041     0.0020 C.2     
   3 N3             1.1209    -0.6962    -0.0119 N.2     
   4 C4             2.3178    -0.0889    -0.0201 C.2     
   5 C5             1.1551     2.0672     0.0021 C.2     
   6 N6             1.4707     3.3911     0.0066 N.pl3   
   7 C7             2.3608     1.3766    -0.0131 C.2     
   8 N8             3.3536     2.2962    -0.0170 N.2     
   9 C9             2.8311     3.4889    -0.0056 C.2     
  10 C10            0.5222     4.5075     0.0211 C.3     
  11 O11            1.1378     5.6972    -0.5187 O.3     
  12 C12            0.3469     6.7963    -0.0163 C.3     
  13 C13            0.0334     6.4197     1.4487 C.3     
  14 C14            0.1514     4.8793     1.4739 C.3     
  15 O15            3.3488    -0.7429    -0.0326 O.2     
  16 N16           -1.1894    -0.6787     0.0097 N.pl3   
  17 C17            1.1484     8.0983    -0.0717 C.3     
  18 O18           -1.0969     4.2874     1.8392 O.3     
  19 O19           -1.2913     6.8262     1.7977 O.3     
  20 O20            1.3908     8.4509    -1.4352 O.3     
  21 P21            2.2088     9.7682    -1.8682 P.3     
  22 S22            3.7413     9.9206    -0.8190 S.2     
  23 O23            2.6288     9.6538    -3.4182 O.3     
  24 O24            1.2828    11.0683    -1.6577 O.3     
  25 H25           -0.8651     1.8240     0.0160 H       
  26 H26            3.3892     4.4136    -0.0053 H       
  27 H27           -0.3722     4.2519    -0.5470 H       
  28 H28           -0.5755     6.8929    -0.5889 H       
  29 H29            0.7621     6.8696     2.1230 H       
  30 H30            0.9384     4.5677     2.1606 H       
  31 H31           -2.0252    -0.1866     0.0204 H       
  32 H32           -1.1976    -1.6486     0.0046 H       
  33 H33            0.5834     8.8938     0.4143 H       
  34 H34            2.0996     7.9617     0.4428 H       
  35 H35           -1.3782     4.4884     2.7423 H       
  36 H36           -1.5410     6.6141     2.7076 H       
  37 H37            3.1260    10.4147    -3.7482 H       
  38 H38            0.4656    11.0571    -2.1746 H       
@<TRIPOS>BOND
   1    1    2 1
   2    1    5 1
   3    1   25 1
   4    2    3 2
   5    2   16 1
   6    3    4 1
   7    4    7 1
   8    4   15 2
   9    5    7 2
  10    5    6 1
  11    6    9 1
  12    6   10 1
  13    7    8 1
  14    8    9 2
  15    9   26 1
  16   10   11 1
  17   10   14 1
  18   10   27 1
  19   11   12 1
  20   12   13 1
  21   12   17 1
  22   12   28 1
  23   13   14 1
  24   13   19 1
  25   13   29 1
  26   14   18 1
  27   14   30 1
  28   16   31 1
  29   16   32 1
  30   17   20 1
  31   17   33 1
  32   17   34 1
  33   18   35 1
  34   19   36 1
  35   20   21 1
  36   21   22 2
  37   21   23 1
  38   21   24 1
  39   23   37 1
  40   24   38 1

#	End of record

