#	Name: ASD05250017
#	Creating user name:	WinNT
#	Creation time:	15. 06. 2019 20:58

#	Modifying user name:	WinNT
#	Modification time:	15. 06. 2019 20:58

#	Program:	/corina/corina34_cracker 3.40 0067  02.08.2006

@<TRIPOS>MOLECULE
ASD05250017
  46   49    0    0    0
SMALL
NO_CHARGES


@<TRIPOS>ATOM
   1 C1            10.0575    -4.6767     4.2636 C.ar    
   2 C2             8.9681    -5.3958     3.7984 C.ar    
   3 N3             8.1100    -4.8686     2.9492 N.ar    
   4 C4             8.2484    -3.6309     2.5023 C.ar    
   5 C5             9.3300    -2.8373     2.9291 C.ar    
   6 C6            10.2528    -3.3788     3.8311 C.ar    
   7 N7             7.5208    -2.8463     1.6333 N.pl3   
   8 C8             8.1521    -1.6337     1.5516 C.2     
   9 N9             9.2160    -1.6352     2.3166 N.2     
  10 C10            7.7011    -0.4938     0.7239 C.ar    
  11 C11            6.5486    -0.6068    -0.0548 C.ar    
  12 C12            6.1297     0.4583    -0.8264 C.ar    
  13 C13            6.8479     1.6390    -0.8308 C.ar    
  14 C14            7.9970     1.7617    -0.0583 C.ar    
  15 C15            8.4231     0.6993     0.7236 C.ar    
  16 N16            8.7206     2.9587    -0.0661 N.am    
  17 C17           10.0652     2.9340     0.0230 C.2     
  18 C18           10.8353     4.1879    -0.0889 C.ar    
  19 O19           10.6437     1.8786     0.1957 O.2     
  20 C20           10.1722     5.4012    -0.2873 C.ar    
  21 C21           10.8929     6.5714    -0.3917 C.ar    
  22 C22           12.2776     6.5478    -0.3007 C.ar    
  23 C23           12.9460     5.3400    -0.1032 C.ar    
  24 C24           12.2295     4.1648     0.0090 C.ar    
  25 O25           12.9832     7.7035    -0.4046 O.3     
  26 C26           12.2353     8.9043    -0.6067 C.3     
  27 C27           14.9214     4.0480     0.1873 C.3     
  28 O28           14.3030     5.3202    -0.0153 O.3     
  29 H29           10.7469    -5.1260     4.9631 H       
  30 H30            8.8197    -6.4100     4.1390 H       
  31 H31           11.0942    -2.7983     4.1798 H       
  32 H32            6.7113    -3.1053     1.1657 H       
  33 H33            5.9846    -1.5279    -0.0540 H       
  34 H34            5.2379     0.3686    -1.4289 H       
  35 H35            6.5156     2.4689    -1.4368 H       
  36 H36            9.3156     0.7926     1.3246 H       
  37 H37            8.2546     3.8066    -0.1357 H       
  38 H38            9.0948     5.4223    -0.3592 H       
  39 H39           10.3789     7.5088    -0.5450 H       
  40 H40           12.7458     3.2287     0.1623 H       
  41 H41           11.5525     9.0522     0.2299 H       
  42 H42           12.9185     9.7511    -0.6723 H       
  43 H43           11.6645     8.8254    -1.5320 H       
  44 H44           14.5612     3.6133     1.1197 H       
  45 H45           14.6720     3.3865    -0.6422 H       
  46 H46           16.0029     4.1739     0.2391 H       
@<TRIPOS>BOND
   1    1    2 ar
   2    1    6 ar
   3    1   29 1
   4    2    3 ar
   5    2   30 1
   6    3    4 ar
   7    4    5 ar
   8    4    7 1
   9    5    6 ar
  10    5    9 1
  11    6   31 1
  12    7    8 1
  13    7   32 1
  14    8    9 2
  15    8   10 1
  16   10   11 ar
  17   10   15 ar
  18   11   12 ar
  19   11   33 1
  20   12   13 ar
  21   12   34 1
  22   13   14 ar
  23   13   35 1
  24   14   15 ar
  25   14   16 1
  26   15   36 1
  27   16   17 am
  28   16   37 1
  29   17   18 1
  30   17   19 2
  31   18   20 ar
  32   18   24 ar
  33   20   21 ar
  34   20   38 1
  35   21   22 ar
  36   21   39 1
  37   22   23 ar
  38   22   25 1
  39   23   24 ar
  40   23   28 1
  41   24   40 1
  42   25   26 1
  43   26   41 1
  44   26   42 1
  45   26   43 1
  46   27   28 1
  47   27   44 1
  48   27   45 1
  49   27   46 1

#	End of record

