#	Name: ASD08070353
#	Creating user name:	WinNT
#	Creation time:	15. 06. 2019 21:14

#	Modifying user name:	WinNT
#	Modification time:	15. 06. 2019 21:14

#	Program:	/corina/corina34_cracker 3.40 0067  02.08.2006

@<TRIPOS>MOLECULE
ASD08070353
  39   41    0    0    0
SMALL
NO_CHARGES


@<TRIPOS>ATOM
   1 C1            -0.0117     1.4599     0.0717 C.3     
   2 N2             0.0057    -0.0060     0.0393 N.am    
   3 C3             1.4139    -0.4146     0.0192 C.3     
   4 C4             2.2547     0.8368     0.0402 C.ar    
   5 C5             3.6278     1.0132     0.0329 C.ar    
   6 C6             4.1630     2.2865     0.0567 C.ar    
   7 C7             3.3263     3.3867     0.0875 C.ar    
   8 C8             1.9560     3.2114     0.0943 C.ar    
   9 C9             1.4191     1.9355     0.0709 C.ar    
  10 C10           -1.0672    -0.8216     0.0302 C.2     
  11 O11           -2.1884    -0.3516     0.0497 O.2     
  12 N12           -0.8972    -2.1583    -0.0006 N.am    
  13 C13           -2.0058    -3.0084     0.1116 C.ar    
  14 C14           -2.0241    -4.2193    -0.5677 C.ar    
  15 C15           -3.1164    -5.0566    -0.4563 C.ar    
  16 C16           -4.1957    -4.6880     0.3337 C.ar    
  17 C17           -4.1780    -3.4786     1.0124 C.ar    
  18 C18           -3.0836    -2.6428     0.9064 C.ar    
  19 C19           -0.8523    -4.6194    -1.4266 C.3     
  20 O20           -5.2714    -5.5126     0.4422 O.3     
  21 C21           -6.3470    -5.0700     1.2724 C.3     
  22 H22           -0.5288     1.8428    -0.8082 H       
  23 H23           -0.5148     1.8036     0.9755 H       
  24 H24            1.6346    -1.0227     0.8965 H       
  25 H25            1.6206    -0.9834    -0.8872 H       
  26 H26            4.2816     0.1539     0.0088 H       
  27 H27            5.2344     2.4225     0.0517 H       
  28 H28            3.7437     4.3826     0.1065 H       
  29 H29            1.3026     4.0710     0.1187 H       
  30 H30           -0.0077    -2.5319    -0.1005 H       
  31 H31           -3.1307    -5.9985    -0.9846 H       
  32 H32           -5.0185    -3.1923     1.6272 H       
  33 H33           -3.0682    -1.7029     1.4382 H       
  34 H34           -0.1340    -5.1762    -0.8248 H       
  35 H35           -1.2008    -5.2455    -2.2480 H       
  36 H36           -0.3744    -3.7259    -1.8284 H       
  37 H37           -5.9847    -4.9257     2.2903 H       
  38 H38           -6.7379    -4.1275     0.8889 H       
  39 H39           -7.1388    -5.8190     1.2713 H       
@<TRIPOS>BOND
   1    1    2 1
   2    1    9 1
   3    1   22 1
   4    1   23 1
   5    2    3 1
   6    2   10 am
   7    3    4 1
   8    3   24 1
   9    3   25 1
  10    4    5 ar
  11    4    9 ar
  12    5    6 ar
  13    5   26 1
  14    6    7 ar
  15    6   27 1
  16    7    8 ar
  17    7   28 1
  18    8    9 ar
  19    8   29 1
  20   10   11 2
  21   10   12 am
  22   12   13 1
  23   12   30 1
  24   13   14 ar
  25   13   18 ar
  26   14   15 ar
  27   14   19 1
  28   15   16 ar
  29   15   31 1
  30   16   17 ar
  31   16   20 1
  32   17   18 ar
  33   17   32 1
  34   18   33 1
  35   19   34 1
  36   19   35 1
  37   19   36 1
  38   20   21 1
  39   21   37 1
  40   21   38 1
  41   21   39 1

#	End of record

