#	Name: ASD02508234
#	Creating user name:	WinNT
#	Creation time:	15. 06. 2019 20:24

#	Modifying user name:	WinNT
#	Modification time:	15. 06. 2019 20:24

#	Program:	/corina/corina34_cracker 3.40 0067  02.08.2006

@<TRIPOS>MOLECULE
ASD02508234
  37   39    0    0    0
SMALL
NO_CHARGES


@<TRIPOS>ATOM
   1 C1             0.2484     0.6123    -0.3444 C.ar    
   2 C2             0.0012    -0.7455    -0.5454 C.ar    
   3 C3            -1.2921    -1.2321    -0.4366 C.ar    
   4 C4            -2.3284    -0.3719    -0.1302 C.ar    
   5 C5            -2.0821     0.9756     0.0686 C.ar    
   6 C6            -0.7958     1.4688    -0.0323 C.ar    
   7 S7            -3.9717    -0.9926     0.0076 S.o2    
   8 N8            -4.2470    -1.2990     1.6115 N.am    
   9 C9            -3.4658    -2.2426     2.2878 C.ar    
  10 N10            1.6197     0.7977    -0.5177 N.am    
  11 C11            2.1572    -0.4035    -0.8091 C.2     
  12 O12            1.1896    -1.3336    -0.8270 O.3     
  13 O13           -4.8359     0.0769    -0.3508 O.2     
  14 O14           -3.9810    -2.2528    -0.6490 O.2     
  15 C15            2.3437     2.0662    -0.4039 C.3     
  16 O16            3.3360    -0.6122    -1.0226 O.2     
  17 C17           -2.9424    -1.9430     3.5388 C.ar    
  18 C18           -3.2183    -3.4810     1.7109 C.ar    
  19 C19           -2.4477    -4.4128     2.3793 C.ar    
  20 C20           -1.9212    -4.1119     3.6260 C.ar    
  21 C21           -2.1715    -2.8756     4.2059 C.ar    
  22 Cl22          -1.5118    -2.4997     5.7671 Cl      
  23 O23           -1.1630    -5.0302     4.2833 O.3     
  24 C24           -0.9501    -6.2831     3.6300 C.3     
  25 F25           -0.3042    -6.0680     2.4078 F       
  26 F26           -0.1556    -7.1021     4.4395 F       
  27 F27           -2.1821    -6.9060     3.4031 F       
  28 H28           -1.4894    -2.2826    -0.5916 H       
  29 H29           -2.8974     1.6425     0.3072 H       
  30 H30           -0.6054     2.5204     0.1236 H       
  31 H31           -4.9499    -0.8243     2.0822 H       
  32 H32            2.6735     2.2052     0.6256 H       
  33 H33            3.2108     2.0501    -1.0642 H       
  34 H34            1.6854     2.8870    -0.6885 H       
  35 H35           -3.1376    -0.9813     3.9898 H       
  36 H36           -3.6285    -3.7160     0.7399 H       
  37 H37           -2.2556    -5.3761     1.9304 H       
@<TRIPOS>BOND
   1    1    2 ar
   2    1   10 1
   3    1    6 ar
   4    2    3 ar
   5    2   12 1
   6    3    4 ar
   7    3   28 1
   8    4    5 ar
   9    4    7 1
  10    5    6 ar
  11    5   29 1
  12    6   30 1
  13    7    8 am
  14    7   13 2
  15    7   14 2
  16    8    9 1
  17    8   31 1
  18    9   17 ar
  19    9   18 ar
  20   10   11 am
  21   10   15 1
  22   11   12 1
  23   11   16 2
  24   15   32 1
  25   15   33 1
  26   15   34 1
  27   17   21 ar
  28   17   35 1
  29   18   19 ar
  30   18   36 1
  31   19   20 ar
  32   19   37 1
  33   20   21 ar
  34   20   23 1
  35   21   22 1
  36   23   24 1
  37   24   25 1
  38   24   26 1
  39   24   27 1

#	End of record

