#	Name: ASD03240216
#	Creating user name:	WinNT
#	Creation time:	15. 06. 2019 20:34

#	Modifying user name:	WinNT
#	Modification time:	15. 06. 2019 20:34

#	Program:	/corina/corina34_cracker 3.40 0067  02.08.2006

@<TRIPOS>MOLECULE
ASD03240216
  88   92    0    0    0
SMALL
NO_CHARGES


@<TRIPOS>ATOM
   1 C1            -0.0178     1.3677     0.0641 C.2     
   2 N2             0.0004    -0.0070     0.0590 N.pl3   
   3 C3            -2.6860     3.9948     0.0984 C.3     
   4 C4            -1.2369     3.5041     0.0831 C.3     
   5 N5            -1.2174     2.0392     0.0777 N.pl3   
   6 N6             1.1022     2.0343     0.0614 N.2     
   7 N7            -2.7054     5.4597     0.1039 N.pl3   
   8 C8            -3.9172     6.1380     0.1176 C.ar    
   9 C9            -3.9356     7.5406     0.1228 C.ar    
  10 C10           -5.1486     8.2148     0.1366 C.ar    
  11 C11           -6.3435     7.4930     0.1451 C.ar    
  12 C12           -6.3155     6.0948     0.1399 C.ar    
  13 C13           -5.1118     5.4267     0.1205 C.ar    
  14 C14           -7.6355     8.2050     0.1603 C.2     
  15 N15           -8.7890     7.5080     0.1685 N.am    
  16 O16           -7.6596     9.4209     0.1652 O.2     
  17 C17          -10.0119     8.1792     0.2959 C.ar    
  18 C18          -11.1360     7.7060    -0.3682 C.ar    
  19 C19          -10.1015     9.3144     1.0907 C.ar    
  20 C20          -11.3068     9.9757     1.2166 C.ar    
  21 C21          -12.4298     9.5058     0.5480 C.ar    
  22 C22          -12.3413     8.3677    -0.2432 C.ar    
  23 N23          -13.6514    10.1755     0.6759 N.pl3   
  24 C24          -14.8359     9.6798    -0.0295 C.3     
  25 C25          -13.7461    11.3725     1.5152 C.3     
  26 C26           -2.6622     8.3011     0.1141 C.ar    
  27 C27           -2.4672     9.3283    -0.8074 C.ar    
  28 C28           -1.2805    10.0329    -0.8106 C.ar    
  29 C29           -0.2855     9.7209     0.0982 C.ar    
  30 C30           -0.4734     8.7021     1.0148 C.ar    
  31 C31           -1.6585     7.9950     1.0312 C.ar    
  32 C32          -13.4512    12.5940     0.6832 C.ar    
  33 C33          -15.5694     8.6988     0.8484 C.ar    
  34 C34          -14.4783    13.2512     0.0321 C.ar    
  35 C35          -14.2078    14.3716    -0.7310 C.ar    
  36 C36          -12.9103    14.8350    -0.8427 C.ar    
  37 C37          -11.8833    14.1783    -0.1908 C.ar    
  38 C38          -12.1544    13.0605     0.5759 C.ar    
  39 C39          -16.5541     9.1445     1.7102 C.ar    
  40 C40          -17.2269     8.2447     2.5154 C.ar    
  41 C41          -16.9154     6.8991     2.4586 C.ar    
  42 C42          -15.9314     6.4533     1.5961 C.ar    
  43 C43          -15.2616     7.3526     0.7877 C.ar    
  44 C44            1.0083    10.4936     0.0894 C.3     
  45 C45            1.2053    11.1738     1.4457 C.3     
  46 C46            2.1722     9.5364    -0.1749 C.3     
  47 H47            0.8468    -0.4808     0.0534 H       
  48 H48           -0.8331    -0.5032     0.0610 H       
  49 H49           -3.2032     3.6278    -0.7881 H       
  50 H50           -3.1866     3.6215     0.9918 H       
  51 H51           -0.7363     3.8774    -0.8102 H       
  52 H52           -0.7196     3.8710     0.9696 H       
  53 H53           -2.0509     1.5431     0.0837 H       
  54 H54            1.0893     3.0042     0.0650 H       
  55 H55           -1.8719     5.9558     0.0978 H       
  56 H56           -5.1680     9.2946     0.1410 H       
  57 H57           -7.2406     5.5376     0.1469 H       
  58 H58           -5.0955     4.3468     0.1161 H       
  59 H59           -8.7723     6.5417     0.0863 H       
  60 H60          -11.0673     6.8206    -0.9829 H       
  61 H61           -9.2282     9.6797     1.6107 H       
  62 H62          -11.3766    10.8581     1.8354 H       
  63 H63          -13.2144     8.0022    -0.7632 H       
  64 H64          -15.4932    10.5160    -0.2680 H       
  65 H65          -14.5293     9.1844    -0.9507 H       
  66 H66          -14.7522    11.4482     1.9279 H       
  67 H67          -13.0239    11.3039     2.3287 H       
  68 H68           -3.2432     9.5722    -1.5179 H       
  69 H69           -1.1284    10.8291    -1.5243 H       
  70 H70            0.3070     8.4626     1.7219 H       
  71 H71           -1.8042     7.2000     1.7475 H       
  72 H72          -15.4921    12.8891     0.1193 H       
  73 H73          -15.0102    14.8847    -1.2403 H       
  74 H74          -12.6988    15.7100    -1.4395 H       
  75 H75          -10.8695    14.5402    -0.2783 H       
  76 H76          -11.3521    12.5474     1.0852 H       
  77 H77          -16.7975    10.1958     1.7546 H       
  78 H78          -17.9957     8.5930     3.1892 H       
  79 H79          -17.4406     6.1962     3.0882 H       
  80 H80          -15.6878     5.4021     1.5520 H       
  81 H81          -14.4928     7.0043     0.1139 H       
  82 H82            0.9745    11.2499    -0.6948 H       
  83 H83            1.2391    10.4176     2.2299 H       
  84 H84            2.1411    11.7327     1.4393 H       
  85 H85            0.3761    11.8558     1.6340 H       
  86 H86            2.0318     9.0518    -1.1411 H       
  87 H87            3.1080    10.0953    -0.1813 H       
  88 H88            2.2060     8.7802     0.6093 H       
@<TRIPOS>BOND
   1    1    2 1
   2    1    6 2
   3    1    5 1
   4    2   47 1
   5    2   48 1
   6    3    4 1
   7    3    7 1
   8    3   49 1
   9    3   50 1
  10    4    5 1
  11    4   51 1
  12    4   52 1
  13    5   53 1
  14    6   54 1
  15    7    8 1
  16    7   55 1
  17    8    9 ar
  18    8   13 ar
  19    9   10 ar
  20    9   26 1
  21   10   11 ar
  22   10   56 1
  23   11   12 ar
  24   11   14 1
  25   12   13 ar
  26   12   57 1
  27   13   58 1
  28   14   15 am
  29   14   16 2
  30   15   17 1
  31   15   59 1
  32   17   18 ar
  33   17   19 ar
  34   18   22 ar
  35   18   60 1
  36   19   20 ar
  37   19   61 1
  38   20   21 ar
  39   20   62 1
  40   21   22 ar
  41   21   23 1
  42   22   63 1
  43   23   24 1
  44   23   25 1
  45   24   33 1
  46   24   64 1
  47   24   65 1
  48   25   32 1
  49   25   66 1
  50   25   67 1
  51   26   27 ar
  52   26   31 ar
  53   27   28 ar
  54   27   68 1
  55   28   29 ar
  56   28   69 1
  57   29   30 ar
  58   29   44 1
  59   30   31 ar
  60   30   70 1
  61   31   71 1
  62   32   34 ar
  63   32   38 ar
  64   33   39 ar
  65   33   43 ar
  66   34   35 ar
  67   34   72 1
  68   35   36 ar
  69   35   73 1
  70   36   37 ar
  71   36   74 1
  72   37   38 ar
  73   37   75 1
  74   38   76 1
  75   39   40 ar
  76   39   77 1
  77   40   41 ar
  78   40   78 1
  79   41   42 ar
  80   41   79 1
  81   42   43 ar
  82   42   80 1
  83   43   81 1
  84   44   45 1
  85   44   46 1
  86   44   82 1
  87   45   83 1
  88   45   84 1
  89   45   85 1
  90   46   86 1
  91   46   87 1
  92   46   88 1

#	End of record

