#	Name: ASD03330256
#	Creating user name:	WinNT
#	Creation time:	15. 06. 2019 20:36

#	Modifying user name:	WinNT
#	Modification time:	15. 06. 2019 20:36

#	Program:	/corina/corina34_cracker 3.40 0067  02.08.2006

@<TRIPOS>MOLECULE
ASD03330256
  47   50    0    0    0
SMALL
NO_CHARGES


@<TRIPOS>ATOM
   1 C1            -0.1792     1.6436    -0.2550 C.3     
   2 N2            -0.2304     0.1749    -0.2646 N.3     
   3 C3             0.2843    -0.3673    -1.5350 C.3     
   4 C4             1.6154     0.2820    -1.8133 C.2     
   5 N5             2.0543     1.4025    -1.1822 N.pl3   
   6 C6             1.2786     2.1120    -0.1609 C.3     
   7 C7             2.5818    -0.0913    -2.6889 C.2     
   8 N8             3.5965     0.7970    -2.5833 N.2     
   9 C9             3.2848     1.6971    -1.6778 C.2     
  10 C10            4.1312     2.8391    -1.2672 C.ar    
  11 C11            5.2211     3.2203    -2.0502 C.ar    
  12 C12            2.5348    -1.2547    -3.5923 C.2     
  13 O13            1.5612    -1.9836    -3.5948 O.2     
  14 N14            3.5728    -2.6441    -5.1783 N.3     
  15 N15            3.5706    -1.5109    -4.4156 N.am    
  16 C16            6.0063     4.2864    -1.6620 C.ar    
  17 C17            5.7147     4.9769    -0.4992 C.ar    
  18 C18            4.6352     4.6037     0.2816 C.ar    
  19 C19            3.8392     3.5427    -0.0984 C.ar    
  20 C20            4.7854    -3.4370    -4.9392 C.3     
  21 C21            4.6867    -4.7634    -5.6962 C.3     
  22 C22            4.5259    -4.4807    -7.1925 C.3     
  23 C23            3.2830    -3.6132    -7.4093 C.3     
  24 C24            3.4224    -2.3201    -6.6026 C.3     
  25 H25           -0.6247     2.0277    -1.1727 H       
  26 H26           -0.7369     2.0201     0.6025 H       
  27 H27            0.2709    -0.2096     0.5221 H       
  28 H28            0.4113    -1.4466    -1.4504 H       
  29 H29           -0.4124    -0.1399    -2.3419 H       
  30 H30            1.3320     3.1860    -0.3387 H       
  31 H31            1.6755     1.8822     0.8279 H       
  32 H32            5.4500     2.6819    -2.9580 H       
  33 H33            4.3146    -0.8905    -4.4666 H       
  34 H34            6.8505     4.5823    -2.2671 H       
  35 H35            6.3325     5.8104    -0.1994 H       
  36 H36            4.4127     5.1467     1.1883 H       
  37 H37            2.9969     3.2524     0.5119 H       
  38 H38            5.6564    -2.8830    -5.2892 H       
  39 H39            4.8856    -3.6345    -3.8719 H       
  40 H40            5.5937    -5.3450    -5.5311 H       
  41 H41            3.8238    -5.3241    -5.3370 H       
  42 H42            5.4065    -3.9541    -7.5604 H       
  43 H43            4.4118    -5.4217    -7.7307 H       
  44 H44            3.1871    -3.3730    -8.4682 H       
  45 H45            2.3980    -4.1558    -7.0770 H       
  46 H46            2.5326    -1.7065    -6.7436 H       
  47 H47            4.2998    -1.7714    -6.9449 H       
@<TRIPOS>BOND
   1    1    2 1
   2    1    6 1
   3    1   25 1
   4    1   26 1
   5    2    3 1
   6    2   27 1
   7    3    4 1
   8    3   28 1
   9    3   29 1
  10    4    5 1
  11    4    7 2
  12    5    6 1
  13    5    9 1
  14    6   30 1
  15    6   31 1
  16    7    8 1
  17    7   12 1
  18    8    9 2
  19    9   10 1
  20   10   11 ar
  21   10   19 ar
  22   11   16 ar
  23   11   32 1
  24   12   13 2
  25   12   15 am
  26   14   15 1
  27   14   20 1
  28   14   24 1
  29   15   33 1
  30   16   17 ar
  31   16   34 1
  32   17   18 ar
  33   17   35 1
  34   18   19 ar
  35   18   36 1
  36   19   37 1
  37   20   21 1
  38   20   38 1
  39   20   39 1
  40   21   22 1
  41   21   40 1
  42   21   41 1
  43   22   23 1
  44   22   42 1
  45   22   43 1
  46   23   24 1
  47   23   44 1
  48   23   45 1
  49   24   46 1
  50   24   47 1

#	End of record

