#	Name: ASD01816332
#	Creating user name:	WinNT
#	Creation time:	15. 06. 2019 19:35

#	Modifying user name:	WinNT
#	Modification time:	15. 06. 2019 19:35

#	Program:	/corina/corina34_cracker 3.40 0067  02.08.2006

@<TRIPOS>MOLECULE
ASD01816332
  55   60    0    0    0
SMALL
NO_CHARGES


@<TRIPOS>ATOM
   1 C1            -0.0167     1.3813     0.0096 C.ar    
   2 C2             0.0021    -0.0041     0.0020 C.ar    
   3 C3             1.1983    -0.6909    -0.0126 C.ar    
   4 C4             2.4015     0.0060    -0.0198 C.ar    
   5 C5             2.3790     1.4106    -0.0126 C.ar    
   6 C6             1.1663     2.0916     0.0022 C.ar    
   7 N7             3.6053    -0.6771    -0.0336 N.pl3   
   8 C8             4.7970    -0.0585    -0.0411 C.2     
   9 C9             4.9000     1.3104    -0.0356 C.2     
  10 C10            3.6670     2.1302    -0.0205 C.2     
  11 C11            5.9971     2.2731    -0.0406 C.2     
  12 N12            5.4245     3.4961    -0.0298 N.am    
  13 N13            4.0322     3.3798    -0.0179 N.2     
  14 O14            7.1911     2.0232    -0.0518 O.2     
  15 C15            3.5779    -2.1418    -0.0397 C.3     
  16 C16            3.5558    -2.6379    -1.4625 C.ar    
  17 C17            4.7438    -2.8874    -2.1248 C.ar    
  18 C18            4.7267    -3.3417    -3.4290 C.ar    
  19 C19            3.5152    -3.5482    -4.0749 C.ar    
  20 C20            2.3241    -3.2973    -3.4072 C.ar    
  21 C21            2.3475    -2.8480    -2.1013 C.ar    
  22 N22            3.4947    -4.0088    -5.3988 N.pl3   
  23 C23            2.3900    -4.2502    -6.1404 C.2     
  24 C24            2.7969    -4.6801    -7.3573 C.2     
  25 C25            4.1959    -4.7024    -7.3606 C.2     
  26 N26            4.6150    -4.2946    -6.1897 N.2     
  27 C27            6.1218     4.7008    -0.0298 C.ar    
  28 N28            7.4508     4.7114    -0.0409 N.ar    
  29 C29            8.1145     5.8496    -0.0414 C.ar    
  30 N30            7.4975     7.0140    -0.0310 N.ar    
  31 C31            6.1742     7.0849    -0.0195 C.ar    
  32 C32            5.4367     5.9162    -0.0239 C.ar    
  33 C33            9.6212     5.8190    -0.0536 C.3     
  34 C34            5.4822     8.4236    -0.0077 C.3     
  35 H35           -0.9602     1.9068     0.0169 H       
  36 H36           -0.9289    -0.5516     0.0079 H       
  37 H37            1.2004    -1.7709    -0.0181 H       
  38 H38            1.1506     3.1715     0.0081 H       
  39 H39            5.6983    -0.6535    -0.0514 H       
  40 H40            4.4655    -2.5239     0.4646 H       
  41 H41            2.6859    -2.4907     0.4806 H       
  42 H42            5.6859    -2.7265    -1.6218 H       
  43 H43            5.6549    -3.5357    -3.9460 H       
  44 H44            1.3802    -3.4566    -3.9072 H       
  45 H45            1.4213    -2.6527    -1.5814 H       
  46 H46            1.3668    -4.1235    -5.8190 H       
  47 H47            2.1551    -4.9570    -8.1806 H       
  48 H48            4.8222    -5.0004    -8.1885 H       
  49 H49            4.3570     5.9430    -0.0149 H       
  50 H50            9.9762     5.8161    -1.0842 H       
  51 H51           10.0067     6.6993     0.4609 H       
  52 H52            9.9705     4.9197     0.4535 H       
  53 H53            5.3067     8.7509    -1.0325 H       
  54 H54            4.5291     8.3353     0.5137 H       
  55 H55            6.1102     9.1528     0.5041 H       
@<TRIPOS>BOND
   1    1    2 ar
   2    1    6 ar
   3    1   35 1
   4    2    3 ar
   5    2   36 1
   6    3    4 ar
   7    3   37 1
   8    4    5 ar
   9    4    7 1
  10    5    6 ar
  11    5   10 1
  12    6   38 1
  13    7    8 1
  14    7   15 1
  15    8    9 2
  16    8   39 1
  17    9   10 1
  18    9   11 1
  19   10   13 2
  20   11   12 am
  21   11   14 2
  22   12   13 1
  23   12   27 1
  24   15   16 1
  25   15   40 1
  26   15   41 1
  27   16   17 ar
  28   16   21 ar
  29   17   18 ar
  30   17   42 1
  31   18   19 ar
  32   18   43 1
  33   19   20 ar
  34   19   22 1
  35   20   21 ar
  36   20   44 1
  37   21   45 1
  38   22   23 1
  39   22   26 1
  40   23   24 2
  41   23   46 1
  42   24   25 1
  43   24   47 1
  44   25   26 2
  45   25   48 1
  46   27   28 ar
  47   27   32 ar
  48   28   29 ar
  49   29   30 ar
  50   29   33 1
  51   30   31 ar
  52   31   32 ar
  53   31   34 1
  54   32   49 1
  55   33   50 1
  56   33   51 1
  57   33   52 1
  58   34   53 1
  59   34   54 1
  60   34   55 1

#	End of record

