#	Name: ASD01410741
#	Creating user name:	WinNT
#	Creation time:	15. 06. 2019 19:18

#	Modifying user name:	WinNT
#	Modification time:	15. 06. 2019 19:18

#	Program:	/corina/corina34_cracker 3.40 0067  02.08.2006

@<TRIPOS>MOLECULE
ASD01410741
  98  104    0    0    0
SMALL
NO_CHARGES


@<TRIPOS>ATOM
   1 N1             2.1345     2.2051    -2.2271 N.3     
   2 C2             1.9495    -1.5045    -1.5207 C.3     
   3 C3             1.6594    -0.1966    -2.2904 C.3     
   4 N4             2.6454    -0.2182    -3.3871 N.am    
   5 C5             2.7283    -1.6118    -3.8439 C.3     
   6 C6             2.3041    -2.4973    -2.6543 C.3     
   7 O7             3.0557    -1.3343    -0.6322 O.3     
   8 C8             1.7946    -1.8293    -5.0067 C.2     
   9 O9             1.1191    -0.9115    -5.4218 O.2     
  10 N10            1.7102    -3.0436    -5.5853 N.am    
  11 C11            1.9127     1.0137    -1.4004 C.3     
  12 C12            3.3682     2.1062    -3.0150 C.3     
  13 C13            3.3517     0.8343    -3.8277 C.2     
  14 O14            3.9709     0.7642    -4.8682 O.2     
  15 C15            3.4701     3.3095    -3.9544 C.3     
  16 C16            2.2735     3.3148    -4.9079 C.3     
  17 C17            0.7394    -3.2786    -6.6569 C.3     
  18 C18           -0.7095    -3.1981    -6.2505 C.2     
  19 N19           -1.0383    -3.0645    -4.9503 N.am    
  20 O20           -1.5798    -3.2536    -7.0934 O.2     
  21 S21           -2.6282    -3.1087    -4.4895 S.o2    
  22 C22           -3.1672    -4.7952    -4.8842 C.3     
  23 C23            1.1070    -2.7958    -8.0615 C.3     
  24 C24            1.1141    -4.2924    -7.7398 C.3     
  25 C25           -4.6464    -5.1297    -4.6817 C.3     
  26 C26           -4.0829    -4.9787    -6.0961 C.3     
  27 O27           -2.5909    -2.9136    -3.0824 O.2     
  28 O28           -3.2666    -2.1686    -5.3427 O.2     
  29 C29           -0.0077    -2.2768    -8.9328 C.2     
  30 C30            0.0280    -1.0452    -9.3777 C.2     
  31 C31            3.1363    -2.1853     0.4206 C.ar    
  32 C32            4.1774    -2.0679     1.3709 C.ar    
  33 C33            2.2081    -3.1782     0.5951 C.ar    
  34 C34            2.3135    -4.0445     1.6916 C.ar    
  35 N35            3.2937    -3.9295     2.5719 N.ar    
  36 C36            4.2248    -2.9773     2.4564 C.ar    
  37 C37            1.3056    -5.1108     1.8687 C.2     
  38 C38            5.2617    -2.8658     3.3979 C.ar    
  39 C39            6.2072    -1.8761     3.2543 C.ar    
  40 C40            6.1471    -0.9804     2.1824 C.ar    
  41 C41            5.1565    -1.0708     1.2535 C.ar    
  42 O42            7.2097    -1.7680     4.1644 O.3     
  43 C43            8.1604    -0.7207     3.9611 C.3     
  44 N44            1.2865    -5.9792     2.8393 N.2     
  45 C45            0.3123    -6.8564     2.8367 C.2     
  46 C46           -0.5600    -6.7568     1.8252 C.2     
  47 S47           -0.0672    -5.4067     0.8049 S.3     
  48 C48            0.1822    -7.9113     3.9050 C.3     
  49 C49           -0.7727    -7.4190     4.9944 C.3     
  50 C50           -0.3692    -9.1978     3.2869 C.3     
  51 C51            3.4728     4.5997    -3.1322 C.3     
  52 C52            5.3378    -3.8240     4.5586 C.3     
  53 H53            1.3395     2.3861    -2.8214 H       
  54 H54            1.0657    -1.8360    -0.9756 H       
  55 H55            0.6421    -0.1935    -2.6819 H       
  56 H56            3.7511    -1.8475    -4.1378 H       
  57 H57            3.1286    -3.1417    -2.3491 H       
  58 H58            1.4328    -3.0960    -2.9197 H       
  59 H59            2.2924    -3.7620    -5.2921 H       
  60 H60            2.7931     0.8318    -0.7841 H       
  61 H61            1.0488     1.1761    -0.7559 H       
  62 H62            4.2272     2.0969    -2.3441 H       
  63 H63            4.3932     3.2437    -4.5303 H       
  64 H64            1.3504     3.3806    -4.3321 H       
  65 H65            2.3461     4.1721    -5.5772 H       
  66 H66            2.2716     2.3956    -5.4937 H       
  67 H67           -0.3435    -2.9424    -4.2844 H       
  68 H68           -2.4407    -5.5812    -4.6783 H       
  69 H69            2.0711    -2.3034    -8.1882 H       
  70 H70            2.0831    -4.7843    -7.6552 H       
  71 H71            0.3126    -4.9010    -8.1586 H       
  72 H72           -4.8930    -6.1360    -4.3430 H       
  73 H73           -5.2957    -4.3364    -4.3113 H       
  74 H74           -4.3615    -4.0861    -6.6562 H       
  75 H75           -3.9588    -5.8856    -6.6879 H       
  76 H76           -0.8360    -2.9202    -9.1904 H       
  77 H77           -0.7708    -0.6732   -10.0021 H       
  78 H78            0.8563    -0.4018    -9.1200 H       
  79 H79            1.3980    -3.2925    -0.1099 H       
  80 H80            6.8986    -0.2105     2.0877 H       
  81 H81            5.1216    -0.3726     0.4303 H       
  82 H82            8.6524    -0.8586     2.9983 H       
  83 H83            7.6488     0.2417     3.9731 H       
  84 H84            8.9050    -0.7464     4.7567 H       
  85 H85           -1.4187    -7.3918     1.6646 H       
  86 H86            1.1611    -8.1087     4.3418 H       
  87 H87           -1.7516    -7.2216     4.5575 H       
  88 H88           -0.8668    -8.1820     5.7670 H       
  89 H89           -0.3799    -6.5025     5.4347 H       
  90 H90            0.3110    -9.5485     2.5108 H       
  91 H91           -0.4633    -9.9608     4.0595 H       
  92 H92           -1.3481    -9.0004     2.8500 H       
  93 H93            2.5136     4.7101    -2.6262 H       
  94 H94            4.2714     4.5570    -2.3916 H       
  95 H95            3.6351     5.4513    -3.7929 H       
  96 H96            5.9354    -4.6906     4.2758 H       
  97 H97            5.8002    -3.3262     5.4110 H       
  98 H98            4.3327    -4.1482     4.8286 H       
@<TRIPOS>BOND
   1    1   11 1
   2    1   12 1
   3    1   53 1
   4    2    3 1
   5    2    7 1
   6    2    6 1
   7    2   54 1
   8    3    4 1
   9    3   11 1
  10    3   55 1
  11    4    5 1
  12    4   13 am
  13    5    6 1
  14    5    8 1
  15    5   56 1
  16    6   57 1
  17    6   58 1
  18    7   31 1
  19    8    9 2
  20    8   10 am
  21   10   17 1
  22   10   59 1
  23   11   60 1
  24   11   61 1
  25   12   13 1
  26   12   15 1
  27   12   62 1
  28   13   14 2
  29   15   16 1
  30   15   51 1
  31   15   63 1
  32   16   64 1
  33   16   65 1
  34   16   66 1
  35   17   18 1
  36   17   23 1
  37   17   24 1
  38   18   19 am
  39   18   20 2
  40   19   21 am
  41   19   67 1
  42   21   22 1
  43   21   27 2
  44   21   28 2
  45   22   25 1
  46   22   26 1
  47   22   68 1
  48   23   24 1
  49   23   29 1
  50   23   69 1
  51   24   70 1
  52   24   71 1
  53   25   26 1
  54   25   72 1
  55   25   73 1
  56   26   74 1
  57   26   75 1
  58   29   30 2
  59   29   76 1
  60   30   77 1
  61   30   78 1
  62   31   32 ar
  63   31   33 ar
  64   32   36 ar
  65   32   41 ar
  66   33   34 ar
  67   33   79 1
  68   34   35 ar
  69   34   37 1
  70   35   36 ar
  71   36   38 ar
  72   37   44 2
  73   37   47 1
  74   38   39 ar
  75   38   52 1
  76   39   40 ar
  77   39   42 1
  78   40   41 ar
  79   40   80 1
  80   41   81 1
  81   42   43 1
  82   43   82 1
  83   43   83 1
  84   43   84 1
  85   44   45 1
  86   45   46 2
  87   45   48 1
  88   46   47 1
  89   46   85 1
  90   48   49 1
  91   48   50 1
  92   48   86 1
  93   49   87 1
  94   49   88 1
  95   49   89 1
  96   50   90 1
  97   50   91 1
  98   50   92 1
  99   51   93 1
 100   51   94 1
 101   51   95 1
 102   52   96 1
 103   52   97 1
 104   52   98 1

#	End of record

