#	Name: ASD02448060
#	Creating user name:	WinNT
#	Creation time:	15. 06. 2019 20:21

#	Modifying user name:	WinNT
#	Modification time:	15. 06. 2019 20:21

#	Program:	/corina/corina34_cracker 3.40 0067  02.08.2006

@<TRIPOS>MOLECULE
ASD02448060
  82   88    0    0    0
SMALL
NO_CHARGES


@<TRIPOS>ATOM
   1 C1            -0.0236     1.3541    -0.0538 C.ar    
   2 C2            -0.0045    -0.0278    -0.0457 C.ar    
   3 C3             1.2057    -0.7077    -0.0372 C.ar    
   4 C4             2.3996    -0.0003    -0.0368 C.ar    
   5 C5             2.3820     1.3861    -0.0450 C.ar    
   6 C6             1.1653     2.0649    -0.0535 C.ar    
   7 N7             3.5843     2.1024    -0.0441 N.am    
   8 C8             4.4162     2.4709    -1.1971 C.3     
   9 C9             5.6255     3.2393    -0.7714 C.2     
  10 N10            5.7242     3.4444     0.5496 N.am    
  11 S11            4.3972     2.7397     1.2660 S.o2    
  12 O12            6.4531     3.6452    -1.5596 O.2     
  13 O13            3.5986     3.7898     1.7939 O.2     
  14 O14            4.8690     1.6402     2.0327 O.2     
  15 N15            1.2219    -2.1108    -0.0285 N.pl3   
  16 C16            1.8525    -2.9209    -0.9343 C.2     
  17 C17            0.6195    -2.9177     0.8837 C.2     
  18 N18            0.8529    -4.1606     0.5665 N.2     
  19 C19            1.6098    -4.2009    -0.5488 C.2     
  20 C20            2.0915    -5.4256    -1.2338 C.ar    
  21 C21            1.7666    -6.6842    -0.7277 C.ar    
  22 C22            2.8650    -5.3227    -2.3879 C.ar    
  23 C23            3.3104    -6.4650    -3.0219 C.ar    
  24 C24            2.9900    -7.7118    -2.5132 C.ar    
  25 C25            2.2173    -7.8207    -1.3696 C.ar    
  26 C26           -0.1867    -2.4520     2.0687 C.3     
  27 C27            0.6943    -2.4102     3.2906 C.ar    
  28 C28            1.4590    -1.2873     3.5506 C.ar    
  29 C29            0.7310    -3.4926     4.1510 C.ar    
  30 C30            1.5358    -3.4595     5.2718 C.ar    
  31 C31            2.3122    -2.3331     5.5358 C.ar    
  32 C32            2.2674    -1.2435     4.6684 C.ar    
  33 C33            3.1790    -2.2915     6.7395 C.ar    
  34 C34            3.9554    -1.1650     7.0035 C.ar    
  35 C35            3.2151    -3.3765     7.6130 C.ar    
  36 C36            4.0231    -3.3325     8.7310 C.ar    
  37 C37            4.7958    -2.2138     8.9854 C.ar    
  38 C38            4.7599    -1.1317     8.1245 C.ar    
  39 Cl39           0.7982    -6.8216     0.7065 Cl      
  40 Cl40           3.5537    -9.1443    -3.3158 Cl      
  41 C41            5.6754    -2.1712    10.2084 C.3     
  42 C42            7.1340    -1.9943     9.7816 C.3     
  43 C43            8.0269    -1.9510    11.0233 C.3     
  44 C44            7.6093    -0.7771    11.9112 C.3     
  45 C45            6.1507    -0.9541    12.3379 C.3     
  46 C46            5.2578    -0.9973    11.0963 C.3     
  47 O47            1.1449     3.4253    -0.0620 O.3     
  48 C48           -0.1379     4.0549    -0.0705 C.3     
  49 H49           -0.9666     1.8805    -0.0650 H       
  50 H50           -0.9329    -0.5797    -0.0457 H       
  51 H51            3.3413    -0.5290    -0.0298 H       
  52 H52            4.7325     1.5645    -1.7133 H       
  53 H53            3.8275     3.0821    -1.8812 H       
  54 H54            6.4372     3.9193     1.0047 H       
  55 H55            2.4305    -2.6038    -1.7898 H       
  56 H56            3.1154    -4.3505    -2.7862 H       
  57 H57            3.9097    -6.3858    -3.9168 H       
  58 H58            1.9704    -8.7958    -0.9765 H       
  59 H59           -0.5811    -1.4553     1.8708 H       
  60 H60           -1.0128    -3.1422     2.2399 H       
  61 H61            1.4238    -0.4435     2.8775 H       
  62 H62            0.1285    -4.3651     3.9456 H       
  63 H63            1.5634    -4.3051     5.9432 H       
  64 H64            2.8674    -0.3680     4.8681 H       
  65 H65            3.9281    -0.3196     6.3319 H       
  66 H66            2.6116    -4.2502     7.4156 H       
  67 H67            4.0519    -4.1729     9.4087 H       
  68 H68            5.3655    -0.2609     8.3277 H       
  69 H69            5.5699    -3.1028    10.7644 H       
  70 H70            7.4315    -2.8306     9.1491 H       
  71 H71            7.2394    -1.0627     9.2256 H       
  72 H72            7.9215    -2.8826    11.5792 H       
  73 H73            9.0661    -1.8250    10.7192 H       
  74 H74            8.2455    -0.7463    12.7957 H       
  75 H75            7.7148     0.1545    11.3552 H       
  76 H76            6.0453    -1.8856    12.8939 H       
  77 H77            5.8532    -0.1177    12.9705 H       
  78 H78            5.3632    -0.0657    10.5403 H       
  79 H79            4.2186    -1.1234    11.4003 H       
  80 H80           -0.0112     5.1375    -0.0767 H       
  81 H81           -0.6872     3.7482    -0.9606 H       
  82 H82           -0.6936     3.7592     0.8193 H       
@<TRIPOS>BOND
   1    1    2 ar
   2    1    6 ar
   3    1   49 1
   4    2    3 ar
   5    2   50 1
   6    3    4 ar
   7    3   15 1
   8    4    5 ar
   9    4   51 1
  10    5    6 ar
  11    5    7 1
  12    6   47 1
  13    7    8 1
  14    7   11 am
  15    8    9 1
  16    8   52 1
  17    8   53 1
  18    9   10 am
  19    9   12 2
  20   10   11 am
  21   10   54 1
  22   11   13 2
  23   11   14 2
  24   15   16 1
  25   15   17 1
  26   16   19 2
  27   16   55 1
  28   17   18 2
  29   17   26 1
  30   18   19 1
  31   19   20 1
  32   20   21 ar
  33   20   22 ar
  34   21   39 1
  35   21   25 ar
  36   22   23 ar
  37   22   56 1
  38   23   24 ar
  39   23   57 1
  40   24   25 ar
  41   24   40 1
  42   25   58 1
  43   26   27 1
  44   26   59 1
  45   26   60 1
  46   27   28 ar
  47   27   29 ar
  48   28   32 ar
  49   28   61 1
  50   29   30 ar
  51   29   62 1
  52   30   31 ar
  53   30   63 1
  54   31   32 ar
  55   31   33 1
  56   32   64 1
  57   33   34 ar
  58   33   35 ar
  59   34   38 ar
  60   34   65 1
  61   35   36 ar
  62   35   66 1
  63   36   37 ar
  64   36   67 1
  65   37   38 ar
  66   37   41 1
  67   38   68 1
  68   41   42 1
  69   41   46 1
  70   41   69 1
  71   42   43 1
  72   42   70 1
  73   42   71 1
  74   43   44 1
  75   43   72 1
  76   43   73 1
  77   44   45 1
  78   44   74 1
  79   44   75 1
  80   45   46 1
  81   45   76 1
  82   45   77 1
  83   46   78 1
  84   46   79 1
  85   47   48 1
  86   48   80 1
  87   48   81 1
  88   48   82 1

#	End of record

