#	Name: ASD01870528
#	Creating user name:	WinNT
#	Creation time:	15. 06. 2019 19:39

#	Modifying user name:	WinNT
#	Modification time:	15. 06. 2019 19:39

#	Program:	/corina/corina34_cracker 3.40 0067  02.08.2006

@<TRIPOS>MOLECULE
ASD01870528
  40   43    0    0    0
SMALL
NO_CHARGES


@<TRIPOS>ATOM
   1 C1            -0.0125     1.4355     0.0836 C.ar    
   2 C2            -0.0012     0.0523     0.0917 C.ar    
   3 C3             1.2014    -0.6411     0.0748 C.ar    
   4 C4             2.3963     0.0580     0.0498 C.ar    
   5 C5             2.3840     1.4684     0.0416 C.ar    
   6 C6             1.1763     2.1475     0.0586 C.ar    
   7 C7             3.8214    -0.3338     0.0268 C.2     
   8 N8             4.5723     0.7822     0.0068 N.am    
   9 C9             3.8014     1.8846     0.0139 C.2     
  10 O10            4.2034     3.0307    -0.0007 O.2     
  11 O11            4.2437    -1.4725     0.0261 O.2     
  12 C12            5.9749     0.7948    -0.0178 C.ar    
  13 C13            6.6576     2.0032    -0.0372 C.ar    
  14 C14            8.0385     2.0170    -0.0610 C.ar    
  15 C15            8.7448     0.8223    -0.0655 C.ar    
  16 C16            8.0613    -0.3893    -0.0461 C.ar    
  17 C17            6.6798    -0.4017    -0.0170 C.ar    
  18 F18            8.7478    -1.5529    -0.0504 F       
  19 N19           10.1454     0.8363    -0.0901 N.am    
  20 C20           10.7979     1.8060    -0.7612 C.2     
  21 C21           12.2596     1.8939    -0.6854 C.2     
  22 O22           10.1739     2.6089    -1.4301 O.2     
  23 C23           13.0413     2.8217    -1.3123 C.2     
  24 C24           14.3697     2.5326    -0.9628 C.2     
  25 C25           14.3411     1.4547    -0.1484 C.2     
  26 O26           13.0675     1.0758     0.0204 O.3     
  27 C27           12.5693     3.9395    -2.2060 C.3     
  28 Cl28          -1.5006    -0.8221     0.1236 Cl      
  29 H29           -0.9542     1.9642     0.0924 H       
  30 H30            1.2049    -1.7211     0.0816 H       
  31 H31            1.1614     3.2274     0.0520 H       
  32 H32            6.1086     2.9332    -0.0341 H       
  33 H33            8.5688     2.9577    -0.0765 H       
  34 H34            6.1482    -1.3417    -0.0019 H       
  35 H35           10.6456     0.1482     0.3759 H       
  36 H36           15.2493     3.0703    -1.2847 H       
  37 H37           15.2029     0.9791     0.2960 H       
  38 H38           12.3754     4.8280    -1.6051 H       
  39 H39           13.3378     4.1621    -2.9462 H       
  40 H40           11.6531     3.6369    -2.7132 H       
@<TRIPOS>BOND
   1    1    2 ar
   2    1    6 ar
   3    1   29 1
   4    2    3 ar
   5    2   28 1
   6    3    4 ar
   7    3   30 1
   8    4    5 ar
   9    4    7 1
  10    5    6 ar
  11    5    9 1
  12    6   31 1
  13    7    8 am
  14    7   11 2
  15    8    9 am
  16    8   12 1
  17    9   10 2
  18   12   13 ar
  19   12   17 ar
  20   13   14 ar
  21   13   32 1
  22   14   15 ar
  23   14   33 1
  24   15   16 ar
  25   15   19 1
  26   16   17 ar
  27   16   18 1
  28   17   34 1
  29   19   20 am
  30   19   35 1
  31   20   21 1
  32   20   22 2
  33   21   23 2
  34   21   26 1
  35   23   24 1
  36   23   27 1
  37   24   25 2
  38   24   36 1
  39   25   26 1
  40   25   37 1
  41   27   38 1
  42   27   39 1
  43   27   40 1

#	End of record

