#	Name: ASD01231406
#	Creating user name:	WinNT
#	Creation time:	15. 06. 2019 19:15

#	Modifying user name:	WinNT
#	Modification time:	15. 06. 2019 19:15

#	Program:	/corina/corina34_cracker 3.40 0067  02.08.2006

@<TRIPOS>MOLECULE
ASD01231406
  47   49    0    0    0
SMALL
NO_CHARGES


@<TRIPOS>ATOM
   1 C1             2.2787     2.8301    -3.7998 C.3     
   2 C2             1.9165     1.3480    -3.6859 C.3     
   3 C3             0.5238     1.1165    -4.2757 C.3     
   4 S4             3.1317     0.3568    -4.5978 S.o2    
   5 O5             2.9319    -1.0282    -4.3506 O.2     
   6 O6             3.2849     0.8500    -5.9216 O.2     
   7 N7             4.5769     0.6981    -3.8650 N.am    
   8 C8             5.5551    -1.0376    -2.3932 C.3     
   9 C9             4.8017     0.3072    -2.4711 C.3     
  10 C10            5.7836     1.2775    -1.7807 C.3     
  11 C11            6.5928     0.4159    -0.8350 C.ar    
  12 C12            7.3804     0.7691     0.2469 C.ar    
  13 C13            8.0382    -0.2077     0.9782 C.ar    
  14 C14            7.9048    -1.5425     0.6230 C.ar    
  15 C15            7.1185    -1.8915    -0.4560 C.ar    
  16 C16            6.4616    -0.9148    -1.1869 C.ar    
  17 O17            8.8118     0.1409     2.0396 O.3     
  18 C18            8.8273     1.4465     2.4162 C.ar    
  19 C19            7.8953     1.9174     3.3303 C.ar    
  20 C20            7.9136     3.2447     3.7118 C.ar    
  21 C21            8.8595     4.1042     3.1837 C.ar    
  22 C22            9.7891     3.6377     2.2729 C.ar    
  23 C23            9.7785     2.3097     1.8919 C.ar    
  24 C24            6.9016     3.7568     4.7040 C.3     
  25 F25            7.4089     3.6196     6.0006 F       
  26 F26            6.6380     5.1065     4.4468 F       
  27 F27            5.7183     3.0198     4.5858 F       
  28 H28            3.2709     2.9950    -3.3797 H       
  29 H29            2.2747     3.1256    -4.8490 H       
  30 H30            1.5485     3.4257    -3.2519 H       
  31 H31            1.9205     1.0526    -2.6367 H       
  32 H32            0.5198     1.4119    -5.3249 H       
  33 H33            0.2658     0.0606    -4.1945 H       
  34 H34           -0.2063     1.7121    -3.7277 H       
  35 H35            5.2746     1.1569    -4.3586 H       
  36 H36            4.8509    -1.8581    -2.2551 H       
  37 H37            6.1458    -1.1931    -3.2960 H       
  38 H38            3.8597     0.2558    -1.9252 H       
  39 H39            6.4358     1.7443    -2.5188 H       
  40 H40            5.2355     2.0379    -1.2244 H       
  41 H41            7.4830     1.8084     0.5219 H       
  42 H42            8.4158    -2.3069     1.1897 H       
  43 H43            7.0152    -2.9304    -0.7323 H       
  44 H44            7.1562     1.2466     3.7428 H       
  45 H45            8.8719     5.1418     3.4830 H       
  46 H46           10.5268     4.3110     1.8619 H       
  47 H47           10.5074     1.9448     1.1834 H       
@<TRIPOS>BOND
   1    1    2 1
   2    1   28 1
   3    1   29 1
   4    1   30 1
   5    2    3 1
   6    2    4 1
   7    2   31 1
   8    3   32 1
   9    3   33 1
  10    3   34 1
  11    4    5 2
  12    4    6 2
  13    4    7 am
  14    7    9 1
  15    7   35 1
  16    8    9 1
  17    8   16 1
  18    8   36 1
  19    8   37 1
  20    9   10 1
  21    9   38 1
  22   10   11 1
  23   10   39 1
  24   10   40 1
  25   11   12 ar
  26   11   16 ar
  27   12   13 ar
  28   12   41 1
  29   13   14 ar
  30   13   17 1
  31   14   15 ar
  32   14   42 1
  33   15   16 ar
  34   15   43 1
  35   17   18 1
  36   18   19 ar
  37   18   23 ar
  38   19   20 ar
  39   19   44 1
  40   20   21 ar
  41   20   24 1
  42   21   22 ar
  43   21   45 1
  44   22   23 ar
  45   22   46 1
  46   23   47 1
  47   24   25 1
  48   24   26 1
  49   24   27 1

#	End of record

