#	Name: ASD01910449
#	Creating user name:	WinNT
#	Creation time:	15. 06. 2019 19:55

#	Modifying user name:	WinNT
#	Modification time:	15. 06. 2019 19:55

#	Program:	/corina/corina34_cracker 3.40 0067  02.08.2006

@<TRIPOS>MOLECULE
ASD01910449
  48   51    0    0    0
SMALL
NO_CHARGES


@<TRIPOS>ATOM
   1 C1            -0.6728     1.8344    -1.9640 C.ar    
   2 C2            -0.7431     0.4764    -1.6977 C.ar    
   3 C3             0.3269    -0.1735    -1.1038 C.ar    
   4 C4             1.4673     0.5297    -0.7748 C.ar    
   5 C5             1.5422     1.8956    -1.0409 C.ar    
   6 C6             0.4640     2.5452    -1.6386 C.ar    
   7 F7            -1.8583    -0.2158    -2.0175 F       
   8 C8             2.7666     2.6561    -0.6882 C.2     
   9 N9             2.9762     3.9771    -0.8875 N.2     
  10 C10            4.1797     4.2154    -0.4289 C.2     
  11 O11            4.6631     3.0563     0.0290 O.3     
  12 N12            3.8427     2.1757    -0.1214 N.2     
  13 C13            4.8869     5.5461    -0.4198 C.3     
  14 C14            5.2221     5.9365     1.0215 C.3     
  15 C15            5.9110     7.3030     1.0346 C.3     
  16 C16            7.2180     7.2192     0.2400 C.3     
  17 N17            6.9219     6.7055    -1.1044 N.am    
  18 C18            6.1823     5.4423    -1.2309 C.3     
  19 C19            7.3213     7.3802    -2.2006 C.2     
  20 C20            7.9901     8.6898    -2.0591 C.ar    
  21 O21            7.1311     6.9111    -3.3059 O.2     
  22 C22            9.0722     8.8329    -1.1887 C.ar    
  23 C23            9.6952    10.0566    -1.0588 C.ar    
  24 C24            9.2504    11.1454    -1.7898 C.ar    
  25 C25            8.1724    11.0114    -2.6589 C.ar    
  26 C26            7.5455     9.7870    -2.7998 C.ar    
  27 O27            7.7385    12.0834    -3.3739 O.3     
  28 C28            6.6268    11.8739    -4.2471 C.3     
  29 F29            9.8647    12.3414    -1.6581 F       
  30 H30           -1.5073     2.3363    -2.4310 H       
  31 H31            0.2680    -1.2321    -0.8979 H       
  32 H32            2.3005     0.0225    -0.3113 H       
  33 H33            0.5181     3.6035    -1.8469 H       
  34 H34            4.2404     6.3046    -0.8612 H       
  35 H35            4.3041     5.9870     1.6070 H       
  36 H36            5.8880     5.1900     1.4544 H       
  37 H37            5.2554     8.0453     0.5794 H       
  38 H38            6.1284     7.5910     2.0632 H       
  39 H39            7.6627     8.2113     0.1623 H       
  40 H40            7.9099     6.5448     0.7446 H       
  41 H41            6.7897     4.6231    -0.8462 H       
  42 H42            5.9436     5.2621    -2.2791 H       
  43 H43            9.4213     7.9856    -0.6170 H       
  44 H44           10.5321    10.1660    -0.3848 H       
  45 H45            6.7085     9.6816    -3.4742 H       
  46 H46            6.3834    12.8067    -4.7557 H       
  47 H47            6.8828    11.1137    -4.9852 H       
  48 H48            5.7664    11.5414    -3.6665 H       
@<TRIPOS>BOND
   1    1    2 ar
   2    1    6 ar
   3    1   30 1
   4    2    3 ar
   5    2    7 1
   6    3    4 ar
   7    3   31 1
   8    4    5 ar
   9    4   32 1
  10    5    6 ar
  11    5    8 1
  12    6   33 1
  13    8    9 1
  14    8   12 2
  15    9   10 2
  16   10   11 1
  17   10   13 1
  18   11   12 1
  19   13   14 1
  20   13   18 1
  21   13   34 1
  22   14   15 1
  23   14   35 1
  24   14   36 1
  25   15   16 1
  26   15   37 1
  27   15   38 1
  28   16   17 1
  29   16   39 1
  30   16   40 1
  31   17   18 1
  32   17   19 am
  33   18   41 1
  34   18   42 1
  35   19   20 1
  36   19   21 2
  37   20   22 ar
  38   20   26 ar
  39   22   23 ar
  40   22   43 1
  41   23   24 ar
  42   23   44 1
  43   24   25 ar
  44   24   29 1
  45   25   26 ar
  46   25   27 1
  47   26   45 1
  48   27   28 1
  49   28   46 1
  50   28   47 1
  51   28   48 1

#	End of record

