#	Name: ASD00660013
#	Creating user name:	WinNT
#	Creation time:	15. 06. 2019 18:36

#	Modifying user name:	WinNT
#	Modification time:	15. 06. 2019 18:36

#	Program:	/corina/corina34_cracker 3.40 0067  02.08.2006

@<TRIPOS>MOLECULE
ASD00660013
  64   67    0    0    0
SMALL
NO_CHARGES


@<TRIPOS>ATOM
   1 C1             6.8522    -3.1034    -6.1429 C.ar    
   2 C2             6.5311    -4.0155    -5.1458 C.ar    
   3 C3             6.4388    -3.6195    -3.8310 C.ar    
   4 C4             6.6705    -2.2835    -3.4923 C.ar    
   5 C5             6.9971    -1.3579    -4.5099 C.ar    
   6 C6             7.0852    -1.7811    -5.8351 C.ar    
   7 N7             6.5891    -1.8538    -2.2112 N.2     
   8 C8             6.8059    -0.6014    -1.8934 C.2     
   9 N9             7.1265     0.3568    -2.8151 N.am    
  10 C10            7.2352     0.0400    -4.1261 C.2     
  11 C11            7.3441     1.6765    -2.3987 C.ar    
  12 C12            6.2823     2.4461    -1.9422 C.ar    
  13 C13            6.5001     3.7467    -1.5319 C.ar    
  14 C14            7.7741     4.2828    -1.5753 C.ar    
  15 C15            8.8335     3.5191    -2.0298 C.ar    
  16 C16            8.6230     2.2159    -2.4361 C.ar    
  17 O17            7.5202     0.8825    -4.9571 O.2     
  18 S18            6.6778    -0.1297    -0.2005 S.3     
  19 C19            6.0960    -1.6865     0.5164 C.3     
  20 C20            7.1885    -2.7206     0.4257 C.2     
  21 N21            6.8759    -4.0315     0.4104 N.am    
  22 O22            8.3490    -2.3732     0.3664 O.2     
  23 C23            7.9299    -5.0514     0.3223 C.3     
  24 C24            7.6173    -5.9832    -0.8529 C.3     
  25 C25            6.2058    -6.5507    -0.6873 C.3     
  26 C26            5.1898    -5.4062    -0.6949 C.3     
  27 C27            5.4752    -4.4681     0.4877 C.3     
  28 C28            5.9075    -7.4944    -1.8238 C.2     
  29 N29            4.7140    -8.1172    -1.8870 N.am    
  30 O30            6.7415    -7.6933    -2.6815 O.2     
  31 C31            5.7243    -1.4648     1.9839 C.3     
  32 C32            4.5168    -0.5290     2.0684 C.3     
  33 C33            3.2954    -1.2158     1.4540 C.3     
  34 C34            4.2312    -0.1960     3.5341 C.3     
  35 H35            6.9242    -3.4348    -7.1683 H       
  36 H36            6.3513    -5.0483    -5.4056 H       
  37 H37            6.1880    -4.3378    -3.0644 H       
  38 H38            7.3341    -1.0770    -6.6153 H       
  39 H39            5.2870     2.0281    -1.9084 H       
  40 H40            5.6746     4.3459    -1.1771 H       
  41 H41            7.9419     5.3001    -1.2539 H       
  42 H42            9.8272     3.9408    -2.0632 H       
  43 H43            9.4509     1.6200    -2.7910 H       
  44 H44            5.2203    -2.0341    -0.0317 H       
  45 H45            8.8932    -4.5682     0.1593 H       
  46 H46            7.9594    -5.6272     1.2473 H       
  47 H47            7.6774    -5.4239    -1.7865 H       
  48 H48            8.3383    -6.8005    -0.8708 H       
  49 H49            6.1394    -7.0889     0.2583 H       
  50 H50            5.2727    -4.8524    -1.6300 H       
  51 H51            4.1829    -5.8129    -0.6004 H       
  52 H52            5.3032    -4.9982     1.4245 H       
  53 H53            4.8193    -3.5993     0.4314 H       
  54 H54            4.0469    -7.9580    -1.2010 H       
  55 H55            4.5220    -8.7246    -2.6185 H       
  56 H56            5.4758    -2.4210     2.4443 H       
  57 H57            6.5683    -1.0172     2.5088 H       
  58 H58            4.7302     0.3897     1.5220 H       
  59 H59            3.1434    -2.1831     1.9328 H       
  60 H60            2.4138    -0.5929     1.6055 H       
  61 H61            3.4588    -1.3605     0.3861 H       
  62 H62            5.1013     0.2933     3.9718 H       
  63 H63            3.3709     0.4707     3.5943 H       
  64 H64            4.0178    -1.1147     4.0805 H       
@<TRIPOS>BOND
   1    1    2 ar
   2    1    6 ar
   3    1   35 1
   4    2    3 ar
   5    2   36 1
   6    3    4 ar
   7    3   37 1
   8    4    5 ar
   9    4    7 1
  10    5    6 ar
  11    5   10 1
  12    6   38 1
  13    7    8 2
  14    8    9 1
  15    8   18 1
  16    9   10 am
  17    9   11 1
  18   10   17 2
  19   11   12 ar
  20   11   16 ar
  21   12   13 ar
  22   12   39 1
  23   13   14 ar
  24   13   40 1
  25   14   15 ar
  26   14   41 1
  27   15   16 ar
  28   15   42 1
  29   16   43 1
  30   18   19 1
  31   19   20 1
  32   19   31 1
  33   19   44 1
  34   20   21 am
  35   20   22 2
  36   21   23 1
  37   21   27 1
  38   23   24 1
  39   23   45 1
  40   23   46 1
  41   24   25 1
  42   24   47 1
  43   24   48 1
  44   25   26 1
  45   25   28 1
  46   25   49 1
  47   26   27 1
  48   26   50 1
  49   26   51 1
  50   27   52 1
  51   27   53 1
  52   28   29 am
  53   28   30 2
  54   29   54 1
  55   29   55 1
  56   31   32 1
  57   31   56 1
  58   31   57 1
  59   32   33 1
  60   32   34 1
  61   32   58 1
  62   33   59 1
  63   33   60 1
  64   33   61 1
  65   34   62 1
  66   34   63 1
  67   34   64 1

#	End of record

