#	Name: ASD01885086
#	Creating user name:	WinNT
#	Creation time:	15. 06. 2019 19:49

#	Modifying user name:	WinNT
#	Modification time:	15. 06. 2019 19:49

#	Program:	/corina/corina34_cracker 3.40 0067  02.08.2006

@<TRIPOS>MOLECULE
ASD01885086
  60   64    0    0    0
SMALL
NO_CHARGES


@<TRIPOS>ATOM
   1 C1            -0.0313     1.3218    -0.3673 C.2     
   2 C2            -0.0013    -0.0046     0.1046 C.2     
   3 C3            -2.3757     0.1023     0.3761 C.2     
   4 C4            -2.3877     1.3766    -0.0681 C.2     
   5 N5            -1.2289     1.9895    -0.4445 N.pl3   
   6 C6            -0.9348     3.2270    -0.9277 C.2     
   7 N7             0.3580     3.2771    -1.1205 N.2     
   8 N8             0.9023     2.1592    -0.7888 N.2     
   9 C9            -1.1565    -2.0243     0.9794 C.3     
  10 C10           -1.9189     4.3371    -1.1927 C.3     
  11 C11            1.3049    -0.7498     0.2019 C.3     
  12 C12           -2.0701     5.1956     0.0647 C.3     
  13 C13           -2.9408     6.4496    -0.0365 C.3     
  14 C14           -3.4445     5.2290     0.7362 C.3     
  15 C15           -1.1651    -0.6053     0.4720 C.2     
  16 N16           -1.0859    -2.0193     2.4467 N.3     
  17 C17           -1.3134    -3.3658     2.9895 C.3     
  18 C18           -1.1532    -3.3332     4.5113 C.3     
  19 N19           -2.1065    -2.3709     5.0811 N.3     
  20 C20           -1.8791    -1.0243     4.5382 C.3     
  21 C21           -2.0392    -1.0569     3.0165 C.3     
  22 C22           -2.0359    -2.3658     6.5484 C.3     
  23 C23           -2.8373    -1.2083     7.0858 C.ar    
  24 C24           -4.1774    -1.3739     7.3814 C.ar    
  25 C25           -4.9132    -0.3105     7.8756 C.ar    
  26 C26           -4.3056     0.9182     8.0732 C.ar    
  27 C27           -2.9659     1.0813     7.7770 C.ar    
  28 C28           -2.2307     0.0171     7.2884 C.ar    
  29 C29           -2.3043     2.4182     7.9919 C.3     
  30 F30           -6.2231    -0.4710     8.1645 F       
  31 F31           -3.2421     3.3273     8.4934 F       
  32 F32           -1.2554     2.2778     8.9069 F       
  33 F33           -1.8015     2.8907     6.7749 F       
  34 F34            1.4197    -1.6327    -0.8771 F       
  35 F35            2.3654     0.1623     0.1730 F       
  36 F36            1.3424    -1.4706     1.4003 F       
  37 H37           -3.2998    -0.3723     0.6713 H       
  38 H38           -3.3236     1.9109    -0.1381 H       
  39 H39           -2.0685    -2.5294     0.6612 H       
  40 H40           -0.2907    -2.5493     0.5758 H       
  41 H41           -1.5563     4.9558    -2.0136 H       
  42 H42           -2.8855     3.9098    -1.4593 H       
  43 H43           -1.1930     5.2426     0.7101 H       
  44 H44           -2.6367     7.3216     0.5425 H       
  45 H45           -3.4058     6.6631    -0.9990 H       
  46 H46           -4.2409     4.6393     0.2822 H       
  47 H47           -3.4718     5.2978     1.8237 H       
  48 H48           -2.3216    -3.6942     2.7369 H       
  49 H49           -0.5875    -4.0576     2.5622 H       
  50 H50           -1.3500    -4.3248     4.9189 H       
  51 H51           -0.1368    -3.0311     4.7635 H       
  52 H52           -2.6050    -0.3325     4.9656 H       
  53 H53           -0.8709    -0.6959     4.7908 H       
  54 H54           -1.8425    -0.0653     2.6088 H       
  55 H55           -3.0557    -1.3590     2.7642 H       
  56 H56           -2.4430    -3.3001     6.9349 H       
  57 H57           -0.9969    -2.2650     6.8618 H       
  58 H58           -4.6503    -2.3324     7.2266 H       
  59 H59           -4.8787     1.7486     8.4583 H       
  60 H60           -1.1825     0.1443     7.0614 H       
@<TRIPOS>BOND
   1    1    2 1
   2    1    8 2
   3    1    5 1
   4    2   15 2
   5    2   11 1
   6    3    4 2
   7    3   15 1
   8    3   37 1
   9    4    5 1
  10    4   38 1
  11    5    6 1
  12    6    7 2
  13    6   10 1
  14    7    8 1
  15    9   15 1
  16    9   16 1
  17    9   39 1
  18    9   40 1
  19   10   12 1
  20   10   41 1
  21   10   42 1
  22   11   34 1
  23   11   35 1
  24   11   36 1
  25   12   13 1
  26   12   14 1
  27   12   43 1
  28   13   14 1
  29   13   44 1
  30   13   45 1
  31   14   46 1
  32   14   47 1
  33   16   17 1
  34   16   21 1
  35   17   18 1
  36   17   48 1
  37   17   49 1
  38   18   19 1
  39   18   50 1
  40   18   51 1
  41   19   20 1
  42   19   22 1
  43   20   21 1
  44   20   52 1
  45   20   53 1
  46   21   54 1
  47   21   55 1
  48   22   23 1
  49   22   56 1
  50   22   57 1
  51   23   24 ar
  52   23   28 ar
  53   24   25 ar
  54   24   58 1
  55   25   26 ar
  56   25   30 1
  57   26   27 ar
  58   26   59 1
  59   27   28 ar
  60   27   29 1
  61   28   60 1
  62   29   31 1
  63   29   32 1
  64   29   33 1

#	End of record

