#	Name: ASD03730830
#	Creating user name:	WinNT
#	Creation time:	15. 06. 2019 20:44

#	Modifying user name:	WinNT
#	Modification time:	15. 06. 2019 20:44

#	Program:	/corina/corina34_cracker 3.40 0067  02.08.2006

@<TRIPOS>MOLECULE
ASD03730830
  52   56    0    0    0
SMALL
NO_CHARGES


@<TRIPOS>ATOM
   1 N1            -0.0162     1.3448     0.0094 N.am    
   2 C2             0.0021    -0.0041     0.0020 C.2     
   3 C3             1.4560    -0.4298    -0.0134 C.3     
   4 C4             2.2163     0.8607    -0.0137 C.ar    
   5 C5             3.5697     1.1211    -0.0251 C.ar    
   6 C6             3.9543     2.4577    -0.0228 C.ar    
   7 C7             3.0207     3.4738    -0.0093 C.ar    
   8 C8             1.6582     3.2193     0.0025 C.ar    
   9 C9             1.2588     1.8816     0.0001 C.ar    
  10 O10            2.5157    -2.9752    -4.9142 O.3     
  11 C11            2.9048    -1.7916    -5.6364 C.3     
  12 O12            2.2469    -0.7259    -4.9258 O.3     
  13 C13            2.1045    -1.1757    -3.6449 C.ar    
  14 C14            2.2695    -2.5589    -3.6378 C.ar    
  15 C15            1.8434    -0.5133    -2.4601 C.ar    
  16 C16            2.1698    -3.2520    -2.4460 C.ar    
  17 C17            1.9078    -2.5819    -1.2577 C.ar    
  18 C18            1.8177    -3.4000     0.0040 C.3     
  19 C19            1.1017    -2.6174     1.1030 C.3     
  20 C20            1.7726    -1.2448     1.2359 C.3     
  21 C21            1.7445    -1.2140    -1.2645 C.ar    
  22 O22           -0.9636    -0.7378     0.0072 O.2     
  23 C23           -1.2421     2.1469     0.0197 C.3     
  24 C24           -1.6619     2.4183     1.4658 C.3     
  25 C25           -2.9421     3.2560     1.4766 C.3     
  26 C26           -3.3619     3.5273     2.9226 C.3     
  27 C27           -4.6421     4.3650     2.9334 C.3     
  28 F28            1.1098    -4.5775    -0.2595 F       
  29 F29            3.1080    -3.7255     0.4357 F       
  30 H30            4.2982     0.3239    -0.0352 H       
  31 H31            5.0054     2.7055    -0.0312 H       
  32 H32            3.3620     4.4985    -0.0076 H       
  33 H33            0.9359     4.0222     0.0133 H       
  34 H34            3.9866    -1.6622    -5.6052 H       
  35 H35            2.5532    -1.8389    -6.6671 H       
  36 H36            1.7153     0.5591    -2.4638 H       
  37 H37            2.2976    -4.3244    -2.4385 H       
  38 H38            0.0523    -2.4887     0.8378 H       
  39 H39            1.1787    -3.1565     2.0472 H       
  40 H40            2.8514    -1.3716     1.3270 H       
  41 H41            1.3854    -0.7315     2.1161 H       
  42 H42           -1.0613     3.0934    -0.4898 H       
  43 H43           -2.0359     1.6039    -0.4932 H       
  44 H44           -1.8426     1.4719     1.9754 H       
  45 H45           -0.8680     2.9613     1.9787 H       
  46 H46           -2.7614     4.2024     0.9670 H       
  47 H47           -3.7359     2.7130     0.9636 H       
  48 H48           -3.5426     2.5809     3.4322 H       
  49 H49           -2.5681     4.0704     3.4356 H       
  50 H50           -4.9412     4.5584     3.9636 H       
  51 H51           -4.4614     5.3115     2.4238 H       
  52 H52           -5.4360     3.8220     2.4205 H       
@<TRIPOS>BOND
   1    1    2 am
   2    1    9 1
   3    1   23 1
   4    2    3 1
   5    2   22 2
   6    3    4 1
   7    3   20 1
   8    3   21 1
   9    4    5 ar
  10    4    9 ar
  11    5    6 ar
  12    5   30 1
  13    6    7 ar
  14    6   31 1
  15    7    8 ar
  16    7   32 1
  17    8    9 ar
  18    8   33 1
  19   10   11 1
  20   10   14 1
  21   11   12 1
  22   11   34 1
  23   11   35 1
  24   12   13 1
  25   13   14 ar
  26   13   15 ar
  27   14   16 ar
  28   15   21 ar
  29   15   36 1
  30   16   17 ar
  31   16   37 1
  32   17   18 1
  33   17   21 ar
  34   18   19 1
  35   18   28 1
  36   18   29 1
  37   19   20 1
  38   19   38 1
  39   19   39 1
  40   20   40 1
  41   20   41 1
  42   23   24 1
  43   23   42 1
  44   23   43 1
  45   24   25 1
  46   24   44 1
  47   24   45 1
  48   25   26 1
  49   25   46 1
  50   25   47 1
  51   26   27 1
  52   26   48 1
  53   26   49 1
  54   27   50 1
  55   27   51 1
  56   27   52 1

#	End of record

