#	Name: ASD02030145
#	Creating user name:	WinNT
#	Creation time:	15. 06. 2019 20:14

#	Modifying user name:	WinNT
#	Modification time:	15. 06. 2019 20:14

#	Program:	/corina/corina34_cracker 3.40 0067  02.08.2006

@<TRIPOS>MOLECULE
ASD02030145
  53   56    0    0    0
SMALL
NO_CHARGES


@<TRIPOS>ATOM
   1 N1            -0.3964     1.5084    -0.7472 N.am    
   2 C2            -0.5086     0.0434    -0.7816 C.3     
   3 C3            -1.3062    -0.4159     0.4453 C.3     
   4 N4            -2.5342     0.3866     0.5345 N.am    
   5 C5            -2.4219     1.8516     0.5688 C.3     
   6 C6            -1.6240     2.3107    -0.6524 C.3     
   7 C7             0.8110     2.1052    -0.7962 C.2     
   8 C8             2.0421     1.2890    -0.7339 C.2     
   9 N9             3.2699     1.7479    -0.6213 N.2     
  10 N10            2.1038    -0.0547    -0.7764 N.2     
  11 C11            3.3664    -0.3888    -0.6944 C.2     
  12 N12            4.0839     0.7494    -0.5978 N.pl3   
  13 O13            0.8878     3.3146    -0.8916 O.2     
  14 C14           -3.7416    -0.2101     0.5835 C.2     
  15 C15           -3.8384    -1.6923     0.5728 C.ar    
  16 O16           -4.7506     0.4641     0.6364 O.2     
  17 C17           -1.2623     3.7898    -0.5029 C.3     
  18 C18           -2.4600     2.1083    -1.9177 C.3     
  19 C19            5.4787     0.8319    -0.4905 C.ar    
  20 C20            6.0972     2.0715    -0.3975 C.ar    
  21 C21            7.4721     2.1496    -0.2919 C.ar    
  22 C22            8.2327     0.9947    -0.2792 C.ar    
  23 C23            7.6197    -0.2413    -0.3717 C.ar    
  24 C24            6.2447    -0.3261    -0.4713 C.ar    
  25 N25           -4.9381    -2.2643     0.1061 N.ar    
  26 C26           -5.0576    -3.5799     0.0820 C.ar    
  27 C27           -4.0131    -4.3627     0.5534 C.ar    
  28 C28           -2.8756    -3.7293     1.0352 C.ar    
  29 N29           -2.8207    -2.4095     1.0252 N.ar    
  30 C30           -6.3126    -4.2224    -0.4503 C.3     
  31 F31           -7.1597    -3.2352    -0.9650 F       
  32 F32           -5.9795    -5.1264    -1.4647 F       
  33 F33           -6.9636    -4.9022     0.5848 F       
  34 H34           -1.0269    -0.2626    -1.6904 H       
  35 H35            0.4867    -0.4004    -0.7580 H       
  36 H36           -1.5647    -1.4696     0.3401 H       
  37 H37           -0.7085    -0.2713     1.3453 H       
  38 H38           -3.4172     2.2954     0.5453 H       
  39 H39           -1.9037     2.1576     1.4776 H       
  40 H40            3.7620    -1.3937    -0.6997 H       
  41 H41           -0.3993     3.8881     0.1556 H       
  42 H42           -1.0218     4.2057    -1.4814 H       
  43 H43           -2.1079     4.3294    -0.0766 H       
  44 H44           -3.3775     2.6921    -1.8443 H       
  45 H45           -1.8893     2.4362    -2.7865 H       
  46 H46           -2.7087     1.0523    -2.0238 H       
  47 H47            5.5038     2.9738    -0.4080 H       
  48 H48            7.9537     3.1135    -0.2195 H       
  49 H49            9.3077     1.0584    -0.1973 H       
  50 H50            8.2163    -1.1415    -0.3615 H       
  51 H51            5.7665    -1.2918    -0.5432 H       
  52 H52           -4.0837    -5.4404     0.5459 H       
  53 H53           -2.0445    -4.3084     1.4098 H       
@<TRIPOS>BOND
   1    1    2 1
   2    1    7 am
   3    1    6 1
   4    2    3 1
   5    2   34 1
   6    2   35 1
   7    3    4 1
   8    3   36 1
   9    3   37 1
  10    4    5 1
  11    4   14 am
  12    5    6 1
  13    5   38 1
  14    5   39 1
  15    6   17 1
  16    6   18 1
  17    7    8 1
  18    7   13 2
  19    8    9 2
  20    8   10 1
  21    9   12 1
  22   10   11 2
  23   11   12 1
  24   11   40 1
  25   12   19 1
  26   14   15 1
  27   14   16 2
  28   15   25 ar
  29   15   29 ar
  30   17   41 1
  31   17   42 1
  32   17   43 1
  33   18   44 1
  34   18   45 1
  35   18   46 1
  36   19   20 ar
  37   19   24 ar
  38   20   21 ar
  39   20   47 1
  40   21   22 ar
  41   21   48 1
  42   22   23 ar
  43   22   49 1
  44   23   24 ar
  45   23   50 1
  46   24   51 1
  47   25   26 ar
  48   26   27 ar
  49   26   30 1
  50   27   28 ar
  51   27   52 1
  52   28   29 ar
  53   28   53 1
  54   30   31 1
  55   30   32 1
  56   30   33 1

#	End of record

