#	Name: ASD03731853
#	Creating user name:	WinNT
#	Creation time:	15. 06. 2019 20:46

#	Modifying user name:	WinNT
#	Modification time:	15. 06. 2019 20:46

#	Program:	/corina/corina34_cracker 3.40 0067  02.08.2006

@<TRIPOS>MOLECULE
ASD03731853
  39   40    0    0    0
SMALL
NO_CHARGES


@<TRIPOS>ATOM
   1 C1            -0.0180     1.4742     0.0101 C.2     
   2 C2             0.0021    -0.0041     0.0020 C.ar    
   3 C3             1.2184    -0.6885    -0.0133 C.ar    
   4 C4             1.2301    -2.0680    -0.0203 C.ar    
   5 C5             0.0396    -2.7730    -0.0127 C.ar    
   6 C6            -1.1695    -2.1007     0.0024 C.ar    
   7 C7            -1.1952    -0.7214     0.0154 C.ar    
   8 O8             1.0263     2.0963     0.0035 O.2     
   9 N9            -1.1942     2.1322     0.0193 N.am    
  10 S10           -1.2167     3.7880     0.0284 S.o2    
  11 O11           -2.5980     4.1195     0.0625 O.2     
  12 O12           -0.3511     4.1443     1.0976 O.2     
  13 C13            0.0601    -4.2798    -0.0215 C.3     
  14 C14            0.0807    -4.7902     1.3963 C.ar    
  15 C15           -1.1065    -5.0402     2.0573 C.ar    
  16 C16           -1.0868    -5.5100     3.3623 C.ar    
  17 C17            0.1258    -5.7275     4.0006 C.ar    
  18 C18            1.3099    -5.4760     3.3355 C.ar    
  19 C19            1.2876    -5.0131     2.0326 C.ar    
  20 O20           -2.2532    -5.7563     4.0147 O.3     
  21 C21           -2.1568    -6.2385     5.3564 C.3     
  22 F22           -1.4778    -5.3004     6.1415 F       
  23 F23           -3.4413    -6.4373     5.8740 F       
  24 F24           -1.4569    -7.4498     5.3675 F       
  25 C25           -0.4880     4.2593    -1.5646 C.3     
  26 H26            2.1484    -0.1393    -0.0199 H       
  27 H27            2.1706    -2.5988    -0.0321 H       
  28 H28           -2.0953    -2.6569     0.0083 H       
  29 H29           -2.1396    -0.1978     0.0318 H       
  30 H30           -2.0276     1.6358     0.0206 H       
  31 H31           -0.8299    -4.6523    -0.5288 H       
  32 H32            0.9498    -4.6281    -0.5460 H       
  33 H33           -2.0491    -4.8697     1.5584 H       
  34 H34            0.1438    -6.0929     5.0168 H       
  35 H35            2.2540    -5.6449     3.8320 H       
  36 H36            2.2146    -4.8216     1.5126 H       
  37 H37           -1.0900     3.8487    -2.3752 H       
  38 H38           -0.4629     5.3461    -1.6453 H       
  39 H39            0.5266     3.8665    -1.6305 H       
@<TRIPOS>BOND
   1    1    2 1
   2    1    8 2
   3    1    9 am
   4    2    3 ar
   5    2    7 ar
   6    3    4 ar
   7    3   26 1
   8    4    5 ar
   9    4   27 1
  10    5    6 ar
  11    5   13 1
  12    6    7 ar
  13    6   28 1
  14    7   29 1
  15    9   10 am
  16    9   30 1
  17   10   11 2
  18   10   12 2
  19   10   25 1
  20   13   14 1
  21   13   31 1
  22   13   32 1
  23   14   15 ar
  24   14   19 ar
  25   15   16 ar
  26   15   33 1
  27   16   17 ar
  28   16   20 1
  29   17   18 ar
  30   17   34 1
  31   18   19 ar
  32   18   35 1
  33   19   36 1
  34   20   21 1
  35   21   22 1
  36   21   23 1
  37   21   24 1
  38   25   37 1
  39   25   38 1
  40   25   39 1

#	End of record

