#	Name: ASD03082102
#	Creating user name:	WinNT
#	Creation time:	15. 06. 2019 20:27

#	Modifying user name:	WinNT
#	Modification time:	15. 06. 2019 20:27

#	Program:	/corina/corina34_cracker 3.40 0067  02.08.2006

@<TRIPOS>MOLECULE
ASD03082102
  45   48    0    0    0
SMALL
NO_CHARGES


@<TRIPOS>ATOM
   1 C1            -0.0355     1.4043     0.1797 C.ar    
   2 C2            -0.0452     0.0299     0.4171 C.ar    
   3 C3            -1.2115    -0.6892     0.2553 C.ar    
   4 C4            -2.3764    -0.0551    -0.1427 C.ar    
   5 C5            -2.3857     1.3047    -0.3823 C.ar    
   6 C6            -1.2209     2.0485    -0.2185 C.ar    
   7 C7            -1.2262     3.5081    -0.4745 C.ar    
   8 C8            -0.3615     4.0558    -1.4213 C.ar    
   9 C9            -0.3710     5.4157    -1.6553 C.ar    
  10 C10           -1.2358     6.2353    -0.9524 C.ar    
  11 C11           -2.0960     5.6976    -0.0118 C.ar    
  12 C12           -2.0999     4.3384     0.2265 C.ar    
  13 C13            1.2094     2.1790     0.3510 C.2     
  14 N14            2.3699     1.5422     0.6044 N.am    
  15 O15            1.1878     3.3914     0.2637 O.2     
  16 C16            3.6054     2.3109     0.7744 C.3     
  17 C17            4.7499     1.3689     1.0459 C.ar    
  18 C18            5.1919     1.1785     2.3188 C.ar    
  19 C19            6.2490     0.3113     2.5892 C.ar    
  20 C20            6.8699    -0.3703     1.5882 C.ar    
  21 C21            6.4409    -0.1998     0.2608 C.ar    
  22 C22            5.3625     0.6779    -0.0136 C.ar    
  23 C23            7.0572    -0.8864    -0.7994 C.ar    
  24 C24            6.6149    -0.6963    -2.0723 C.ar    
  25 C25            5.5579     0.1710    -2.3427 C.ar    
  26 C26            4.9336     0.8485    -1.3410 C.ar    
  27 H27            0.8599    -0.4712     0.7270 H       
  28 H28           -1.2159    -1.7533     0.4399 H       
  29 H29           -3.2836    -0.6279    -0.2669 H       
  30 H30           -3.2981     1.7920    -0.6927 H       
  31 H31            0.3146     3.4170    -1.9702 H       
  32 H32            0.2983     5.8411    -2.3885 H       
  33 H33           -1.2391     7.2991    -1.1384 H       
  34 H34           -2.7689     6.3424     0.5340 H       
  35 H35           -2.7719     3.9198     0.9610 H       
  36 H36            2.3872     0.5748     0.6741 H       
  37 H37            3.8088     2.8774    -0.1343 H       
  38 H38            3.4933     2.9978     1.6134 H       
  39 H39            4.7167     1.7075     3.1317 H       
  40 H40            6.5807     0.1784     3.6084 H       
  41 H41            7.6882    -1.0384     1.8126 H       
  42 H42            7.8778    -1.5610    -0.6049 H       
  43 H43            7.0903    -1.2251    -2.8851 H       
  44 H44            5.2267     0.3044    -3.3620 H       
  45 H45            4.1156     1.5170    -1.5655 H       
@<TRIPOS>BOND
   1    1    2 ar
   2    1   13 1
   3    1    6 ar
   4    2    3 ar
   5    2   27 1
   6    3    4 ar
   7    3   28 1
   8    4    5 ar
   9    4   29 1
  10    5    6 ar
  11    5   30 1
  12    6    7 1
  13    7    8 ar
  14    7   12 ar
  15    8    9 ar
  16    8   31 1
  17    9   10 ar
  18    9   32 1
  19   10   11 ar
  20   10   33 1
  21   11   12 ar
  22   11   34 1
  23   12   35 1
  24   13   14 am
  25   13   15 2
  26   14   16 1
  27   14   36 1
  28   16   17 1
  29   16   37 1
  30   16   38 1
  31   17   18 ar
  32   17   22 ar
  33   18   19 ar
  34   18   39 1
  35   19   20 ar
  36   19   40 1
  37   20   21 ar
  38   20   41 1
  39   21   22 ar
  40   21   23 ar
  41   22   26 ar
  42   23   24 ar
  43   23   42 1
  44   24   25 ar
  45   24   43 1
  46   25   26 ar
  47   25   44 1
  48   26   45 1

#	End of record

