#	Name: ASD00230015
#	Creating user name:	WinNT
#	Creation time:	15. 06. 2019 18:33

#	Modifying user name:	WinNT
#	Modification time:	15. 06. 2019 18:33

#	Program:	/corina/corina34_cracker 3.40 0067  02.08.2006

@<TRIPOS>MOLECULE
ASD00230015
  22   21    0    0    0
SMALL
NO_CHARGES


@<TRIPOS>ATOM
   1 N1             0.7287    -0.4908     1.2207 Du      
   2 C2            -0.6582     0.6036    -0.5113 C.3     
   3 C3            -0.1560    -0.7348     0.0341 C.3     
   4 C4             0.2559    -1.7740     1.8370 C.3     
   5 O5             0.4574     1.4135    -0.8873 O.3     
   6 C6             1.9309    -0.4879     0.3237 C.3     
   7 C7             1.6133    -0.2469     2.4072 C.3     
   8 H8             0.1937     0.4480     1.4265 H       
   9 H9            -1.2891     0.4271    -1.3825 H       
  10 H10           -1.2361     1.1156     0.2580 H       
  11 H11            0.4094    -1.2535    -0.7401 H       
  12 H12           -1.0064    -1.3468     0.3347 H       
  13 H13           -0.8234    -1.7309     1.9832 H       
  14 H14            0.5001    -2.6060     1.1764 H       
  15 H15            0.7475    -1.9177     2.7992 H       
  16 H16            0.2131     2.2790    -1.2426 H       
  17 H17            2.3913    -1.4759     0.3300 H       
  18 H18            1.6259    -0.2356    -0.6919 H       
  19 H19            2.6492     0.2499     0.6812 H       
  20 H20            2.1515     0.6913     2.2724 H       
  21 H21            1.0039    -0.1898     3.3091 H       
  22 H22            2.3274    -1.0649     2.5023 H       
@<TRIPOS>BOND
   1    1    3 1
   2    1    4 1
   3    1    6 1
   4    1    7 1
   5    1    8 1
   6    2    3 1
   7    2    5 1
   8    2    9 1
   9    2   10 1
  10    3   11 1
  11    3   12 1
  12    4   13 1
  13    4   14 1
  14    4   15 1
  15    5   16 1
  16    6   17 1
  17    6   18 1
  18    6   19 1
  19    7   20 1
  20    7   21 1
  21    7   22 1

#	End of record

