#	Name: ASD01885706
#	Creating user name:	WinNT
#	Creation time:	15. 06. 2019 19:50

#	Modifying user name:	WinNT
#	Modification time:	15. 06. 2019 19:50

#	Program:	/corina/corina34_cracker 3.40 0067  02.08.2006

@<TRIPOS>MOLECULE
ASD01885706
  60   65    0    0    0
SMALL
NO_CHARGES


@<TRIPOS>ATOM
   1 C1            -0.0170     1.4037     0.0098 C.ar    
   2 C2            -1.2666     2.0741     0.0193 C.ar    
   3 C3            -1.2876     3.4919     0.0272 C.ar    
   4 C4            -0.0705     4.1595     0.0250 C.ar    
   5 C5             1.1196     3.4233     0.0154 C.ar    
   6 N6             1.1177     2.1038     0.0027 N.ar    
   7 C7             0.0021    -0.0041     0.0020 C.ar    
   8 C8            -1.1700    -0.6951     0.0090 C.ar    
   9 C9            -2.3952    -0.0320     0.0237 C.ar    
  10 C10           -2.4531     1.3297     0.0204 C.ar    
  11 C11           -2.5672     4.2367     0.0368 C.ar    
  12 C12           -2.7778     5.2542     0.9679 C.ar    
  13 C13           -3.9714     5.9450     0.9728 C.ar    
  14 C14           -3.5642     3.9272    -0.8888 C.ar    
  15 C15            2.4154     4.1443     0.0065 C.2     
  16 N16            3.5716     3.4520    -0.0142 N.am    
  17 O17            2.4348     5.3591     0.0180 O.2     
  18 C18           -1.1423    -2.2019     0.0132 C.3     
  19 N19           -1.1523    -2.6943    -1.3665 N.pl3   
  20 C20           -4.9609     5.6299     0.0550 C.ar    
  21 C21           -4.7544     4.6238    -0.8757 C.ar    
  22 F22           -6.1287     6.3091     0.0641 F       
  23 C23           -0.0623    -2.9453    -2.1409 C.2     
  24 N24           -0.4348    -3.3723    -3.3122 N.2     
  25 C25           -1.7904    -3.4245    -3.3691 C.ar    
  26 C26           -2.2693    -2.9955    -2.1198 C.ar    
  27 C27           -2.6995    -3.7998    -4.3618 C.ar    
  28 C28           -4.0414    -3.7420    -4.1129 C.ar    
  29 C29           -4.5151    -3.3132    -2.8809 C.ar    
  30 C30           -3.6366    -2.9445    -1.8845 C.ar    
  31 C31            1.3680    -2.7558    -1.7058 C.3     
  32 C32            2.1233    -4.0944    -1.7802 C.3     
  33 C33            3.2771    -3.8941    -2.7843 C.3     
  34 C34            3.5225    -2.3648    -2.7808 C.3     
  35 C35            2.0892    -1.7888    -2.6673 C.3     
  36 H36           -0.0423     5.2392     0.0305 H       
  37 H37            0.9434    -0.5334    -0.0098 H       
  38 H38           -3.3110    -0.6044     0.0376 H       
  39 H39           -3.4090     1.8322     0.0280 H       
  40 H40           -2.0075     5.5002     1.6838 H       
  41 H41           -4.1355     6.7325     1.6934 H       
  42 H42           -3.4040     3.1436    -1.6146 H       
  43 H43            3.5561     2.4822    -0.0234 H       
  44 H44            4.4192     3.9236    -0.0200 H       
  45 H45           -0.2389    -2.5472     0.5158 H       
  46 H46           -2.0184    -2.5799     0.5402 H       
  47 H47           -5.5283     4.3821    -1.5891 H       
  48 H48           -2.3418    -4.1348    -5.3242 H       
  49 H49           -4.7409    -4.0326    -4.8828 H       
  50 H50           -5.5790    -3.2727    -2.6999 H       
  51 H51           -4.0104    -2.6114    -0.9276 H       
  52 H52            1.3999    -2.3651    -0.6887 H       
  53 H53            2.5225    -4.3528    -0.7994 H       
  54 H54            1.4553    -4.8810    -2.1310 H       
  55 H55            4.1692    -4.4244    -2.4511 H       
  56 H56            2.9809    -4.2307    -3.7779 H       
  57 H57            4.1256    -2.0723    -1.9212 H       
  58 H58            3.9940    -2.0471    -3.7109 H       
  59 H59            1.6012    -1.7854    -3.6420 H       
  60 H60            2.1144    -0.7827    -2.2487 H       
@<TRIPOS>BOND
   1    1    7 ar
   2    1    6 ar
   3    1    2 ar
   4    2    3 ar
   5    2   10 ar
   6    3   11 1
   7    3    4 ar
   8    4    5 ar
   9    4   36 1
  10    5   15 1
  11    5    6 ar
  12    7    8 ar
  13    7   37 1
  14    8    9 ar
  15    8   18 1
  16    9   10 ar
  17    9   38 1
  18   10   39 1
  19   11   12 ar
  20   11   14 ar
  21   12   13 ar
  22   12   40 1
  23   13   20 ar
  24   13   41 1
  25   14   21 ar
  26   14   42 1
  27   15   16 am
  28   15   17 2
  29   16   43 1
  30   16   44 1
  31   18   19 1
  32   18   45 1
  33   18   46 1
  34   19   23 1
  35   19   26 1
  36   20   21 ar
  37   20   22 1
  38   21   47 1
  39   23   24 2
  40   23   31 1
  41   24   25 1
  42   25   26 ar
  43   25   27 ar
  44   26   30 ar
  45   27   28 ar
  46   27   48 1
  47   28   29 ar
  48   28   49 1
  49   29   30 ar
  50   29   50 1
  51   30   51 1
  52   31   32 1
  53   31   35 1
  54   31   52 1
  55   32   33 1
  56   32   53 1
  57   32   54 1
  58   33   34 1
  59   33   55 1
  60   33   56 1
  61   34   35 1
  62   34   57 1
  63   34   58 1
  64   35   59 1
  65   35   60 1

#	End of record

