#	Name: ASD01208914
#	Creating user name:	WinNT
#	Creation time:	15. 06. 2019 19:10

#	Modifying user name:	WinNT
#	Modification time:	15. 06. 2019 19:10

#	Program:	/corina/corina34_cracker 3.40 0067  02.08.2006

@<TRIPOS>MOLECULE
ASD01208914
  56   59    0    0    0
SMALL
NO_CHARGES


@<TRIPOS>ATOM
   1 C1            -0.2597     1.7854     0.5509 C.2     
   2 C2            -0.2286     0.3251     0.3239 C.ar    
   3 C3             0.9394    -0.2874    -0.1327 C.ar    
   4 C4             0.9642    -1.6559    -0.3441 C.ar    
   5 C5            -0.1699    -2.4179    -0.1030 C.ar    
   6 C6            -1.3333    -1.8132     0.3506 C.ar    
   7 C7            -1.3650    -0.4457     0.5711 C.ar    
   8 O8             0.7328     2.4545     0.3397 O.2     
   9 N9            -1.3903     2.3757     0.9866 N.am    
  10 O10           -2.4416    -2.5639     0.5844 O.3     
  11 C11           -3.4396    -2.5315    -0.3363 C.ar    
  12 C12           -4.6114    -3.2435    -0.1132 C.ar    
  13 C13           -5.6262    -3.2131    -1.0451 C.ar    
  14 C14           -5.4757    -2.4650    -2.2144 C.ar    
  15 C15           -4.2965    -1.7504    -2.4348 C.ar    
  16 C16           -3.2881    -1.7819    -1.4960 C.ar    
  17 O17           -6.5516    -1.7542    -4.3827 O.3     
  18 C18           -6.5612    -2.4301    -3.2164 C.2     
  19 N19           -7.7146    -3.0520    -3.1369 N.2     
  20 N20           -8.4092    -2.7937    -4.1887 N.2     
  21 C21           -7.7329    -2.0036    -4.9745 C.2     
  22 C22           -8.1920    -1.4669    -6.3058 C.3     
  23 O23            2.1012    -2.2532    -0.7887 O.3     
  24 C24            3.1053    -4.0015    -2.1213 C.3     
  25 C25            2.0234    -3.6458    -1.0996 C.3     
  26 C26            2.2361    -4.4655     0.1747 C.3     
  27 O27            4.3947    -3.8167    -1.5335 O.3     
  28 C28            5.4818    -4.1231    -2.4089 C.3     
  29 S29           -2.7834     4.6141     1.7483 S.3     
  30 C30           -1.4195     3.7428     1.1990 C.2     
  31 N31           -0.4128     4.5438     1.0090 N.2     
  32 C32           -0.6026     5.8161     1.2571 C.2     
  33 C33           -1.8640     6.1159     1.6897 C.2     
  34 C34           -2.3515     7.4180     2.0328 C.1     
  35 N35           -2.7382     8.4509     2.3050 N.1     
  36 H36            1.8225     0.3050    -0.3213 H       
  37 H37           -0.1471    -3.4848    -0.2692 H       
  38 H38           -2.2695     0.0237     0.9288 H       
  39 H39           -2.1836     1.8422     1.1512 H       
  40 H40           -4.7271    -3.8218     0.7915 H       
  41 H41           -6.5367    -3.7674    -0.8713 H       
  42 H42           -4.1763    -1.1710    -3.3383 H       
  43 H43           -2.3773    -1.2264    -1.6641 H       
  44 H44           -7.8944    -2.1549    -7.0971 H       
  45 H45           -9.2772    -1.3652    -6.3018 H       
  46 H46           -7.7364    -0.4924    -6.4813 H       
  47 H47            2.9902    -5.0419    -2.4251 H       
  48 H48            3.0078    -3.3553    -2.9937 H       
  49 H49            1.0418    -3.8707    -1.5167 H       
  50 H50            1.4653    -4.2121     0.9025 H       
  51 H51            2.1768    -5.5277    -0.0625 H       
  52 H52            3.2177    -4.2406     0.5918 H       
  53 H53            5.4160    -5.1661    -2.7187 H       
  54 H54            5.4336    -3.4795    -3.2872 H       
  55 H55            6.4251    -3.9575    -1.8885 H       
  56 H56            0.1688     6.5615     1.1311 H       
@<TRIPOS>BOND
   1    1    2 1
   2    1    8 2
   3    1    9 am
   4    2    3 ar
   5    2    7 ar
   6    3    4 ar
   7    3   36 1
   8    4    5 ar
   9    4   23 1
  10    5    6 ar
  11    5   37 1
  12    6    7 ar
  13    6   10 1
  14    7   38 1
  15    9   30 1
  16    9   39 1
  17   10   11 1
  18   11   12 ar
  19   11   16 ar
  20   12   13 ar
  21   12   40 1
  22   13   14 ar
  23   13   41 1
  24   14   15 ar
  25   14   18 1
  26   15   16 ar
  27   15   42 1
  28   16   43 1
  29   17   18 1
  30   17   21 1
  31   18   19 2
  32   19   20 1
  33   20   21 2
  34   21   22 1
  35   22   44 1
  36   22   45 1
  37   22   46 1
  38   23   25 1
  39   24   25 1
  40   24   27 1
  41   24   47 1
  42   24   48 1
  43   25   26 1
  44   25   49 1
  45   26   50 1
  46   26   51 1
  47   26   52 1
  48   27   28 1
  49   28   53 1
  50   28   54 1
  51   28   55 1
  52   29   30 1
  53   29   33 1
  54   30   31 2
  55   31   32 1
  56   32   33 2
  57   32   56 1
  58   33   34 1
  59   34   35 3

#	End of record

