#	Name: ASD05720086
#	Creating user name:	WinNT
#	Creation time:	15. 06. 2019 21:01

#	Modifying user name:	WinNT
#	Modification time:	15. 06. 2019 21:01

#	Program:	/corina/corina34_cracker 3.40 0067  02.08.2006

@<TRIPOS>MOLECULE
ASD05720086
  22   21    0    0    0
SMALL
NO_CHARGES


@<TRIPOS>ATOM
   1 C1            -0.0187     1.5258     0.0104 C.3     
   2 C2             0.0021    -0.0041     0.0020 C.3     
   3 S3            -2.5747    -0.5199    -1.1107 S.3     
   4 C4            -1.4051    -0.5263     0.1365 C.2     
   5 N5            -1.9018    -1.0429     1.2094 N.2     
   6 C6            -3.1536    -1.4513     1.1559 C.2     
   7 C7            -3.7458    -1.2691    -0.0281 C.2     
   8 C8            -3.8592    -2.0734     2.3332 C.3     
   9 N9             0.5820    -0.4790    -1.2614 N.3     
  10 O10            1.3220     2.0204     0.0003 O.3     
  11 H11           -0.5459     1.8868    -0.8726 H       
  12 H12           -0.5289     1.8773     0.9072 H       
  13 H13            0.6044    -0.3639     0.8362 H       
  14 H14           -4.7627    -1.5341    -0.2775 H       
  15 H15           -4.3457    -1.2933     2.9189 H       
  16 H16           -4.6083    -2.7800     1.9760 H       
  17 H17           -3.1341    -2.5967     2.9564 H       
  18 H18            0.6662    -1.4844    -1.2652 H       
  19 H19            0.0411    -0.1584    -2.0506 H       
  20 H20            1.3852     2.9853     0.0049 H       
  21 Cl21           6.3852     7.9853     7.9564 Cl      
  22 H22            6.3852     9.3553     7.9564 H       
@<TRIPOS>BOND
   1    1    2 1
   2    1   10 1
   3    1   11 1
   4    1   12 1
   5    2    4 1
   6    2    9 1
   7    2   13 1
   8    3    4 1
   9    3    7 1
  10    4    5 2
  11    5    6 1
  12    6    7 2
  13    6    8 1
  14    7   14 1
  15    8   15 1
  16    8   16 1
  17    8   17 1
  18    9   18 1
  19    9   19 1
  20   10   20 1
  21   21   22 1

#	End of record

