#	Name: ASD01816609
#	Creating user name:	WinNT
#	Creation time:	15. 06. 2019 19:35

#	Modifying user name:	WinNT
#	Modification time:	15. 06. 2019 19:35

#	Program:	/corina/corina34_cracker 3.40 0067  02.08.2006

@<TRIPOS>MOLECULE
ASD01816609
  58   63    0    0    0
SMALL
NO_CHARGES


@<TRIPOS>ATOM
   1 C1            -0.0167     1.3813     0.0096 C.ar    
   2 C2             0.0021    -0.0041     0.0020 C.ar    
   3 C3             1.1984    -0.6909    -0.0131 C.ar    
   4 C4             2.4015     0.0059    -0.0204 C.ar    
   5 C5             2.3790     1.4106    -0.0127 C.ar    
   6 C6             1.1663     2.0916     0.0022 C.ar    
   7 N7             3.6053    -0.6772    -0.0347 N.pl3   
   8 C8             4.7970    -0.0586    -0.0423 C.2     
   9 C9             4.9000     1.3103    -0.0364 C.2     
  10 C10            3.6670     2.1302    -0.0207 C.2     
  11 C11            5.9971     2.2730    -0.0418 C.2     
  12 N12            5.4245     3.4961    -0.0307 N.am    
  13 N13            4.0323     3.3799    -0.0182 N.2     
  14 O14            7.1914     2.0229    -0.0536 O.2     
  15 C15            6.1259     4.7074    -0.0309 C.ar    
  16 C16            5.8867     5.6504     0.9607 C.ar    
  17 C17            7.0666     4.9667    -1.0191 C.ar    
  18 C18            7.7573     6.1628    -1.0162 C.ar    
  19 C19            7.5134     7.1013    -0.0305 C.ar    
  20 C20            6.5807     6.8442     0.9579 C.ar    
  21 C21            3.5779    -2.1419    -0.0413 C.3     
  22 C22            3.5555    -2.6375    -1.4643 C.ar    
  23 C23            4.7426    -2.9827    -2.0835 C.ar    
  24 C24            4.7171    -3.4380    -3.3908 C.ar    
  25 C25            3.4814    -3.5306    -4.0363 C.ar    
  26 C26            2.3297    -3.1634    -3.3432 C.ar    
  27 N27            2.4030    -2.7404    -2.0979 N.ar    
  28 C28            3.3968    -4.0119    -5.4375 C.ar    
  29 C29            2.1611    -4.1045    -6.0830 C.ar    
  30 C30            2.1357    -4.5594    -7.3905 C.ar    
  31 C31            3.3228    -4.9043    -8.0098 C.ar    
  32 N32            4.4747    -4.8062    -7.3745 N.ar    
  33 C33            4.5490    -4.3733    -6.1327 C.ar    
  34 C34            4.8706     5.3711     2.0380 C.3     
  35 C35            3.3003    -5.4004    -9.4326 C.3     
  36 H36           -0.9602     1.9068     0.0170 H       
  37 H37           -0.9288    -0.5516     0.0083 H       
  38 H38            1.2004    -1.7709    -0.0189 H       
  39 H39            1.1506     3.1715     0.0077 H       
  40 H40            5.6983    -0.6536    -0.0530 H       
  41 H41            7.2581     4.2337    -1.7889 H       
  42 H42            8.4890     6.3650    -1.7844 H       
  43 H43            8.0554     8.0355    -0.0301 H       
  44 H44            6.3922     7.5795     1.7261 H       
  45 H45            4.4656    -2.5242     0.4626 H       
  46 H46            2.6860    -2.4910     0.4791 H       
  47 H47            5.6796    -2.8979    -1.5533 H       
  48 H48            5.6292    -3.7142    -3.8989 H       
  49 H49            1.3680    -3.2300    -3.8300 H       
  50 H50            1.2489    -3.8287    -5.5749 H       
  51 H51            1.1986    -4.6443    -7.9207 H       
  52 H52            5.5108    -4.3069    -5.6458 H       
  53 H53            5.3588     4.8786     2.8790 H       
  54 H54            4.4291     6.3097     2.3731 H       
  55 H55            4.0892     4.7231     1.6412 H       
  56 H56            3.3988    -4.5551   -10.1138 H       
  57 H57            4.1282    -6.0918    -9.5895 H       
  58 H58            2.3576    -5.9131    -9.6238 H       
@<TRIPOS>BOND
   1    1    2 ar
   2    1    6 ar
   3    1   36 1
   4    2    3 ar
   5    2   37 1
   6    3    4 ar
   7    3   38 1
   8    4    5 ar
   9    4    7 1
  10    5    6 ar
  11    5   10 1
  12    6   39 1
  13    7    8 1
  14    7   21 1
  15    8    9 2
  16    8   40 1
  17    9   10 1
  18    9   11 1
  19   10   13 2
  20   11   12 am
  21   11   14 2
  22   12   13 1
  23   12   15 1
  24   15   16 ar
  25   15   17 ar
  26   16   34 1
  27   16   20 ar
  28   17   18 ar
  29   17   41 1
  30   18   19 ar
  31   18   42 1
  32   19   20 ar
  33   19   43 1
  34   20   44 1
  35   21   22 1
  36   21   45 1
  37   21   46 1
  38   22   23 ar
  39   22   27 ar
  40   23   24 ar
  41   23   47 1
  42   24   25 ar
  43   24   48 1
  44   25   26 ar
  45   25   28 1
  46   26   27 ar
  47   26   49 1
  48   28   29 ar
  49   28   33 ar
  50   29   30 ar
  51   29   50 1
  52   30   31 ar
  53   30   51 1
  54   31   32 ar
  55   31   35 1
  56   32   33 ar
  57   33   52 1
  58   34   53 1
  59   34   54 1
  60   34   55 1
  61   35   56 1
  62   35   57 1
  63   35   58 1

#	End of record

