#	Name: ASD04370058
#	Creating user name:	WinNT
#	Creation time:	15. 06. 2019 20:49

#	Modifying user name:	WinNT
#	Modification time:	15. 06. 2019 20:49

#	Program:	/corina/corina34_cracker 3.40 0067  02.08.2006

@<TRIPOS>MOLECULE
ASD04370058
  80   81    0    0    0
SMALL
NO_CHARGES


@<TRIPOS>ATOM
   1 C1             0.9909     1.9973    -0.3670 C.2     
   2 C2             0.3700     0.6311    -0.2294 C.3     
   3 C3             1.4554    -0.3897     0.1184 C.3     
   4 C4             0.8482    -1.7939     0.1356 C.3     
   5 O5             2.1795     2.1400    -0.2037 O.2     
   6 O6             0.2242     3.0548    -0.6764 O.3     
   7 N7             2.0106    -0.0815     1.4386 N.am    
   8 C8             3.3459    -0.0647     1.6210 C.2     
   9 C9             3.9154     0.1371     3.0016 C.3     
  10 C10            5.4436     0.1146     2.9312 C.3     
  11 C11            6.0218     0.3194     4.3328 C.3     
  12 C12            7.5500     0.2970     4.2624 C.3     
  13 C13            8.1281     0.5018     5.6641 C.3     
  14 C14            9.6564     0.4793     5.5937 C.3     
  15 C15           10.2345     0.6841     6.9953 C.3     
  16 C16           11.7398     0.6620     6.9260 C.2     
  17 C17           12.4405     1.6793     7.4072 C.2     
  18 O18            4.0891    -0.2119     0.6740 O.2     
  19 C19           13.9169     1.6576     7.3392 C.ar    
  20 C20           14.6108     2.7541     6.8262 C.ar    
  21 C21           15.9890     2.7275     6.7654 C.ar    
  22 C22           16.6827     1.6167     7.2112 C.ar    
  23 C23           16.0006     0.5262     7.7205 C.ar    
  24 C24           14.6229     0.5428     7.7929 C.ar    
  25 C25           13.8818    -0.6433     8.3541 C.3     
  26 C26           13.8567     3.9645     6.3392 C.3     
  27 N27            1.8619    -2.7603     0.5790 N.3     
  28 C28            1.2415    -4.0358     0.9614 C.3     
  29 C29            2.8852    -2.9618    -0.4555 C.3     
  30 C30            0.8898     4.3400    -0.7926 C.3     
  31 C31           -0.1226     5.4001    -1.1425 C.ar    
  32 C32           -0.7763     6.0897    -0.1385 C.ar    
  33 C33           -1.7049     7.0621    -0.4595 C.ar    
  34 C34           -1.9795     7.3452    -1.7844 C.ar    
  35 C35           -1.3251     6.6563    -2.7883 C.ar    
  36 C36           -0.3933     5.6869    -2.4674 C.ar    
  37 H37           -0.3781     0.6501     0.5631 H       
  38 H38           -0.1041     0.3510    -1.1700 H       
  39 H39            2.2482    -0.3457    -0.6284 H       
  40 H40            0.0014    -1.8152     0.8215 H       
  41 H41            0.5104    -2.0560    -0.8670 H       
  42 H42            1.4172     0.1105     2.1815 H       
  43 H43            3.5838     1.0982     3.3945 H       
  44 H44            3.5701    -0.6622     3.6574 H       
  45 H45            5.7751    -0.8465     2.5382 H       
  46 H46            5.7889     0.9139     2.2753 H       
  47 H47            5.6902     1.2806     4.7257 H       
  48 H48            5.6765    -0.4798     4.9886 H       
  49 H49            7.8815    -0.6642     3.8695 H       
  50 H50            7.8953     1.0962     3.6066 H       
  51 H51            7.7966     1.4629     6.0570 H       
  52 H52            7.7829    -0.2975     6.3199 H       
  53 H53            9.9879    -0.4818     5.2008 H       
  54 H54           10.0016     1.2786     4.9379 H       
  55 H55            9.9030     1.6453     7.3883 H       
  56 H56            9.8893    -0.1151     7.6512 H       
  57 H57           12.2477    -0.1826     6.4843 H       
  58 H58           11.9326     2.5239     7.8489 H       
  59 H59           16.5273     3.5756     6.3686 H       
  60 H60           17.7614     1.6007     7.1612 H       
  61 H61           16.5480    -0.3381     8.0666 H       
  62 H62           13.6537    -1.3429     7.5500 H       
  63 H63           14.5016    -1.1384     9.1017 H       
  64 H64           12.9541    -0.3064     8.8167 H       
  65 H65           13.7239     4.6657     7.1632 H       
  66 H66           14.4196     4.4460     5.5396 H       
  67 H67           12.8810     3.6575     5.9627 H       
  68 H68            0.7116    -4.4532     0.1052 H       
  69 H69            2.0143    -4.7329     1.2855 H       
  70 H70            0.5384    -3.8677     1.7772 H       
  71 H71            3.3890    -2.0165    -0.6572 H       
  72 H72            3.6134    -3.6948    -0.1083 H       
  73 H73            2.4124    -3.3236    -1.3686 H       
  74 H74            1.3648     4.5903     0.1560 H       
  75 H75            1.6465     4.2879    -1.5754 H       
  76 H76           -0.5618     5.8686     0.8966 H       
  77 H77           -2.2162     7.6004     0.3249 H       
  78 H78           -2.7055     8.1044    -2.0351 H       
  79 H79           -1.5398     6.8772    -3.8234 H       
  80 H80            0.1207     5.1512    -3.2518 H       
@<TRIPOS>BOND
   1    1    2 1
   2    1    5 2
   3    1    6 1
   4    2    3 1
   5    2   37 1
   6    2   38 1
   7    3    4 1
   8    3    7 1
   9    3   39 1
  10    4   27 1
  11    4   40 1
  12    4   41 1
  13    6   30 1
  14    7    8 am
  15    7   42 1
  16    8    9 1
  17    8   18 2
  18    9   10 1
  19    9   43 1
  20    9   44 1
  21   10   11 1
  22   10   45 1
  23   10   46 1
  24   11   12 1
  25   11   47 1
  26   11   48 1
  27   12   13 1
  28   12   49 1
  29   12   50 1
  30   13   14 1
  31   13   51 1
  32   13   52 1
  33   14   15 1
  34   14   53 1
  35   14   54 1
  36   15   16 1
  37   15   55 1
  38   15   56 1
  39   16   17 2
  40   16   57 1
  41   17   19 1
  42   17   58 1
  43   19   20 ar
  44   19   24 ar
  45   20   21 ar
  46   20   26 1
  47   21   22 ar
  48   21   59 1
  49   22   23 ar
  50   22   60 1
  51   23   24 ar
  52   23   61 1
  53   24   25 1
  54   25   62 1
  55   25   63 1
  56   25   64 1
  57   26   65 1
  58   26   66 1
  59   26   67 1
  60   27   28 1
  61   27   29 1
  62   28   68 1
  63   28   69 1
  64   28   70 1
  65   29   71 1
  66   29   72 1
  67   29   73 1
  68   30   31 1
  69   30   74 1
  70   30   75 1
  71   31   32 ar
  72   31   36 ar
  73   32   33 ar
  74   32   76 1
  75   33   34 ar
  76   33   77 1
  77   34   35 ar
  78   34   78 1
  79   35   36 ar
  80   35   79 1
  81   36   80 1

#	End of record

