#	Name: ASD01881911
#	Creating user name:	WinNT
#	Creation time:	15. 06. 2019 19:43

#	Modifying user name:	WinNT
#	Modification time:	15. 06. 2019 19:43

#	Program:	/corina/corina34_cracker 3.40 0067  02.08.2006

@<TRIPOS>MOLECULE
ASD01881911
  49   52    0    0    0
SMALL
NO_CHARGES


@<TRIPOS>ATOM
   1 N1             0.4411     0.2093     1.0214 N.pl3   
   2 N2             0.6686    -1.0473     1.1900 N.2     
   3 N3             1.9245    -1.3182     1.1216 N.2     
   4 C4             2.6124    -0.1816     0.8915 C.ar    
   5 C5             1.6458     0.8396     0.8224 C.ar    
   6 C6             3.9634     0.1356     0.7271 C.ar    
   7 C7             4.3303     1.4472     0.4990 C.ar    
   8 C8             3.3644     2.4486     0.4328 C.ar    
   9 C9             2.0396     2.1512     0.5912 C.ar    
  10 O10            5.6431     1.7633     0.3386 O.3     
  11 C11            5.9557     3.1381     0.1057 C.3     
  12 C12            7.4694     3.2979    -0.0487 C.3     
  13 N13            7.9159     2.5901    -1.2560 N.3     
  14 C14            7.5683     3.3444    -2.4671 C.3     
  15 C15            7.9160     2.5136    -3.7044 C.3     
  16 C16            9.4130     2.1919    -3.6930 C.3     
  17 C17            9.7575     1.4490    -2.3992 C.3     
  18 C18            9.3565     2.3107    -1.1997 C.3     
  19 C19            9.7556     1.3102    -4.8956 C.3     
  20 F20            9.4337     1.9871    -6.0769 F       
  21 F21           11.1235     1.0170    -4.8842 F       
  22 F22            9.0230     0.1205    -4.8254 F       
  23 C23           -0.8745     0.8538     1.0334 C.3     
  24 C24           -1.2153     1.2908     2.4596 C.3     
  25 C25           -2.5027     2.0917     2.6644 C.3     
  26 C26           -2.4253     0.6359     3.1289 C.3     
  27 Br27           5.2786    -1.2201     0.8168 Br      
  28 H28            3.6651     3.4704     0.2542 H       
  29 H29            1.2995     2.9359     0.5375 H       
  30 H30            5.4601     3.4742    -0.8051 H       
  31 H31            5.6112     3.7369     0.9489 H       
  32 H32            7.7161     4.3561    -0.1358 H       
  33 H33            7.9700     2.8789     0.8242 H       
  34 H34            6.5005     3.5630    -2.4647 H       
  35 H35            8.1301     4.2783    -2.4871 H       
  36 H36            7.3442     1.5857    -3.6921 H       
  37 H37            7.6723     3.0800    -4.6033 H       
  38 H38            9.9850     3.1183    -3.7446 H       
  39 H39            9.2148     0.5043    -2.3664 H       
  40 H40           10.8296     1.2548    -2.3655 H       
  41 H41            9.9098     3.2494    -1.2257 H       
  42 H42            9.5874     1.7785    -0.2769 H       
  43 H43           -0.8576     1.7264     0.3804 H       
  44 H44           -1.6273     0.1496     0.6794 H       
  45 H45           -0.3626     1.5382     3.0919 H       
  46 H46           -2.4972     2.8658     3.4318 H       
  47 H47           -3.1069     2.3073     1.7832 H       
  48 H48           -2.9785    -0.1061     2.5532 H       
  49 H49           -2.3688     0.4523     4.2018 H       
@<TRIPOS>BOND
   1    1    2 1
   2    1    5 1
   3    1   23 1
   4    2    3 2
   5    3    4 1
   6    4    5 ar
   7    4    6 ar
   8    5    9 ar
   9    6    7 ar
  10    6   27 1
  11    7    8 ar
  12    7   10 1
  13    8    9 ar
  14    8   28 1
  15    9   29 1
  16   10   11 1
  17   11   12 1
  18   11   30 1
  19   11   31 1
  20   12   13 1
  21   12   32 1
  22   12   33 1
  23   13   14 1
  24   13   18 1
  25   14   15 1
  26   14   34 1
  27   14   35 1
  28   15   16 1
  29   15   36 1
  30   15   37 1
  31   16   17 1
  32   16   19 1
  33   16   38 1
  34   17   18 1
  35   17   39 1
  36   17   40 1
  37   18   41 1
  38   18   42 1
  39   19   20 1
  40   19   21 1
  41   19   22 1
  42   23   24 1
  43   23   43 1
  44   23   44 1
  45   24   25 1
  46   24   26 1
  47   24   45 1
  48   25   26 1
  49   25   46 1
  50   25   47 1
  51   26   48 1
  52   26   49 1

#	End of record

