#	Name: ASD01410003
#	Creating user name:	WinNT
#	Creation time:	15. 06. 2019 19:16

#	Modifying user name:	WinNT
#	Modification time:	15. 06. 2019 19:16

#	Program:	/corina/corina34_cracker 3.40 0067  02.08.2006

@<TRIPOS>MOLECULE
ASD01410003
  72   75    0    0    0
SMALL
NO_CHARGES


@<TRIPOS>ATOM
   1 C1            -0.0528     1.3479     0.2115 C.3     
   2 C2            -0.0078    -0.1754     0.3438 C.3     
   3 O3             0.9261    -0.5261     1.3753 O.3     
   4 C4             2.2034    -0.1323     1.1333 C.2     
   5 C5             2.4042     1.2056     0.5630 C.2     
   6 C6             1.3418     1.9049     0.1212 C.2     
   7 C7            -1.3976    -0.6989     0.7117 C.3     
   8 C8            -1.8667    -0.1073     2.0642 C.3     
   9 C9            -3.4055    -0.1979     2.0034 C.3     
  10 C10           -3.7849    -0.2383     0.5127 C.3     
  11 C11           -2.4634    -0.1708    -0.2804 C.3     
  12 C12            0.4393    -0.7919    -0.9832 C.3     
  13 C13            0.4894    -2.3149    -0.8468 C.3     
  14 C14            1.0519    -2.9142    -2.1100 C.ar    
  15 C15            2.4148    -3.1114    -2.2329 C.ar    
  16 C16            2.9329    -3.6606    -3.3899 C.ar    
  17 C17            2.0843    -4.0142    -4.4289 C.ar    
  18 C18            0.7171    -3.8152    -4.3031 C.ar    
  19 C19            0.2035    -3.2710    -3.1418 C.ar    
  20 O20            2.5916    -4.5541    -5.5682 O.3     
  21 O21            1.5319     3.1310    -0.4137 O.3     
  22 S22            4.0238     1.8915     0.4581 S.3     
  23 O23            3.1458    -0.8609     1.3802 O.2     
  24 C24            4.4733     2.1068     2.1481 C.ar    
  25 C25            3.5433     1.8630     3.1510 C.ar    
  26 C26            3.8960     2.0314     4.4753 C.ar    
  27 C27            5.1801     2.4448     4.8048 C.ar    
  28 C28            6.1101     2.6891     3.8023 C.ar    
  29 C29            5.7600     2.5150     2.4785 C.ar    
  30 C30            2.8873     1.7670     5.5632 C.3     
  31 N31            5.5373     2.6159     6.1475 N.pl3   
  32 C32            6.7691     2.7800     1.3910 C.3     
  33 C33            8.0908     3.2262     2.0194 C.3     
  34 C34            6.9950     1.5010     0.5823 C.3     
  35 C35            6.2459     3.8818     0.4673 C.3     
  36 H36           -0.6073     1.6158    -0.6878 H       
  37 H37           -0.5548     1.7711     1.0816 H       
  38 H38           -1.4023    -1.7884     0.7443 H       
  39 H39           -1.4821    -0.7003     2.8939 H       
  40 H40           -1.5491     0.9313     2.1569 H       
  41 H41           -3.7459    -1.1065     2.5001 H       
  42 H42           -3.8501     0.6767     2.4783 H       
  43 H43           -4.3094    -1.1665     0.2860 H       
  44 H44           -4.4136     0.6167     0.2642 H       
  45 H45           -2.2422     0.8575    -0.5662 H       
  46 H46           -2.5143    -0.8102    -1.1616 H       
  47 H47           -0.2682    -0.5203    -1.7666 H       
  48 H48            1.4297    -0.4175    -1.2423 H       
  49 H49            1.1250    -2.5835    -0.0030 H       
  50 H50           -0.5172    -2.6981    -0.6798 H       
  51 H51            3.0751    -2.8357    -1.4239 H       
  52 H52            3.9976    -3.8141    -3.4855 H       
  53 H53            0.0545    -4.0897    -5.1105 H       
  54 H54           -0.8608    -3.1159    -3.0434 H       
  55 H55            2.6528    -5.5191    -5.5528 H       
  56 H56            2.4618     3.3802    -0.5057 H       
  57 H57            2.5444     1.5422     2.8948 H       
  58 H58            7.1085     3.0112     4.0589 H       
  59 H59            2.9482     0.7226     5.8691 H       
  60 H60            3.0984     2.4090     6.4183 H       
  61 H61            1.8855     1.9781     5.1889 H       
  62 H62            4.8878     2.4456     6.8476 H       
  63 H63            6.4342     2.9046     6.3778 H       
  64 H64            8.4635     2.4413     2.6775 H       
  65 H65            8.8206     3.4179     1.2328 H       
  66 H66            7.9298     4.1374     2.5956 H       
  67 H67            6.0534     1.1831     0.1346 H       
  68 H68            7.7249     1.6927    -0.2043 H       
  69 H69            7.3678     0.7161     1.2403 H       
  70 H70            6.0849     4.7929     1.0435 H       
  71 H71            6.9757     4.0734    -0.3193 H       
  72 H72            5.3043     3.5638     0.0196 H       
@<TRIPOS>BOND
   1    1    2 1
   2    1    6 1
   3    1   36 1
   4    1   37 1
   5    2    3 1
   6    2    7 1
   7    2   12 1
   8    3    4 1
   9    4    5 1
  10    4   23 2
  11    5    6 2
  12    5   22 1
  13    6   21 1
  14    7    8 1
  15    7   11 1
  16    7   38 1
  17    8    9 1
  18    8   39 1
  19    8   40 1
  20    9   10 1
  21    9   41 1
  22    9   42 1
  23   10   11 1
  24   10   43 1
  25   10   44 1
  26   11   45 1
  27   11   46 1
  28   12   13 1
  29   12   47 1
  30   12   48 1
  31   13   14 1
  32   13   49 1
  33   13   50 1
  34   14   15 ar
  35   14   19 ar
  36   15   16 ar
  37   15   51 1
  38   16   17 ar
  39   16   52 1
  40   17   18 ar
  41   17   20 1
  42   18   19 ar
  43   18   53 1
  44   19   54 1
  45   20   55 1
  46   21   56 1
  47   22   24 1
  48   24   25 ar
  49   24   29 ar
  50   25   26 ar
  51   25   57 1
  52   26   27 ar
  53   26   30 1
  54   27   28 ar
  55   27   31 1
  56   28   29 ar
  57   28   58 1
  58   29   32 1
  59   30   59 1
  60   30   60 1
  61   30   61 1
  62   31   62 1
  63   31   63 1
  64   32   33 1
  65   32   34 1
  66   32   35 1
  67   33   64 1
  68   33   65 1
  69   33   66 1
  70   34   67 1
  71   34   68 1
  72   34   69 1
  73   35   70 1
  74   35   71 1
  75   35   72 1

#	End of record

