#	Name: ASD03331383
#	Creating user name:	WinNT
#	Creation time:	15. 06. 2019 20:39

#	Modifying user name:	WinNT
#	Modification time:	15. 06. 2019 20:39

#	Program:	/corina/corina34_cracker 3.40 0067  02.08.2006

@<TRIPOS>MOLECULE
ASD03331383
  60   63    0    0    0
SMALL
NO_CHARGES


@<TRIPOS>ATOM
   1 N1            -0.0923     1.6102    -0.3123 N.2     
   2 N2             0.0195     0.2213    -0.1399 N.am    
   3 C3             1.3352    -0.0946    -0.1654 C.2     
   4 C4             2.0369     1.0514    -0.3454 C.2     
   5 C5             1.1210     2.1100    -0.4361 C.2     
   6 C6             3.5426     1.0925    -0.4216 C.3     
   7 C7             1.9935    -1.4455    -0.0290 C.3     
   8 C8             3.4426    -1.3107    -0.5197 C.3     
   9 O9             4.0450    -0.1567     0.0726 O.3     
  10 C10           -1.0016    -0.6433     0.0225 C.2     
  11 O11           -0.7770    -1.8290     0.1636 O.2     
  12 N12           -2.2717    -0.1926     0.0283 N.am    
  13 C13           -4.6301    -0.5570    -0.4126 C.2     
  14 C14           -3.3816    -1.1324     0.2048 C.3     
  15 C15           -3.6147    -1.3717     1.6979 C.3     
  16 C16           -3.8353    -0.0309     2.4010 C.3     
  17 O17           -4.7529     0.6445    -0.5249 O.2     
  18 N18           -5.6103    -1.3774    -0.8401 N.am    
  19 N19           -8.8474    -0.6229    -2.1229 N.pl3   
  20 N20           -7.8452    -1.5280    -1.7506 N.2     
  21 C21           -6.8175    -0.8418    -1.3094 C.2     
  22 C22           -7.1387     0.5227    -1.3891 C.2     
  23 C23           -8.3900     0.6257    -1.8917 C.2     
  24 C24           -9.1404     1.9072    -2.1482 C.3     
  25 C25           -4.8494    -2.2555     1.8861 C.3     
  26 C26           -2.3926    -2.0682     2.2997 C.3     
  27 C27            1.4587     3.5410    -0.6363 C.ar    
  28 C28            0.6230     4.3562    -1.3975 C.ar    
  29 C29            0.9416     5.6878    -1.5812 C.ar    
  30 C30            2.0920     6.2125    -1.0090 C.ar    
  31 C31            2.9240     5.4044    -0.2527 C.ar    
  32 C32            2.6090     4.0745    -0.0591 C.ar    
  33 F33            2.4011     7.5150    -1.1908 F       
  34 F34            0.1329     6.4798    -2.3187 F       
  35 H35            3.8555     1.2321    -1.4563 H       
  36 H36            3.9204     1.9103     0.1920 H       
  37 H37            1.9846    -1.7571     1.0154 H       
  38 H38            1.4638    -2.1778    -0.6384 H       
  39 H39            4.0058    -2.1998    -0.2363 H       
  40 H40            3.4501    -1.2075    -1.6048 H       
  41 H41           -2.4510     0.7540    -0.0843 H       
  42 H42           -3.1383    -2.0773    -0.2810 H       
  43 H43           -4.7060     0.4653     1.9723 H       
  44 H44           -4.0013    -0.2014     3.4647 H       
  45 H45           -2.9556     0.5987     2.2669 H       
  46 H46           -5.4802    -2.3384    -0.8229 H       
  47 H47           -9.7165    -0.8531    -2.4870 H       
  48 H48           -6.5002     1.3442    -1.0996 H       
  49 H49           -9.7063     2.1813    -1.2579 H       
  50 H50           -8.4328     2.7009    -2.3876 H       
  51 H51           -9.8249     1.7662    -2.9847 H       
  52 H52           -4.6609    -3.2394     1.4566 H       
  53 H53           -5.0639    -2.3583     2.9498 H       
  54 H54           -5.7032    -1.7982     1.3859 H       
  55 H55           -1.5129    -1.4386     2.1656 H       
  56 H56           -2.5586    -2.2387     3.3634 H       
  57 H57           -2.2354    -3.0235     1.7987 H       
  58 H58           -0.2718     3.9475    -1.8433 H       
  59 H59            3.8184     5.8165     0.1905 H       
  60 H60            3.2566     3.4467     0.5350 H       
@<TRIPOS>BOND
   1    1    2 1
   2    1    5 2
   3    2    3 1
   4    2   10 am
   5    3    4 2
   6    3    7 1
   7    4    5 1
   8    4    6 1
   9    5   27 1
  10    6    9 1
  11    6   35 1
  12    6   36 1
  13    7    8 1
  14    7   37 1
  15    7   38 1
  16    8    9 1
  17    8   39 1
  18    8   40 1
  19   10   11 2
  20   10   12 am
  21   12   14 1
  22   12   41 1
  23   13   17 2
  24   13   18 am
  25   13   14 1
  26   14   15 1
  27   14   42 1
  28   15   16 1
  29   15   25 1
  30   15   26 1
  31   16   43 1
  32   16   44 1
  33   16   45 1
  34   18   21 1
  35   18   46 1
  36   19   20 1
  37   19   23 1
  38   19   47 1
  39   20   21 2
  40   21   22 1
  41   22   23 2
  42   22   48 1
  43   23   24 1
  44   24   49 1
  45   24   50 1
  46   24   51 1
  47   25   52 1
  48   25   53 1
  49   25   54 1
  50   26   55 1
  51   26   56 1
  52   26   57 1
  53   27   28 ar
  54   27   32 ar
  55   28   29 ar
  56   28   58 1
  57   29   30 ar
  58   29   34 1
  59   30   31 ar
  60   30   33 1
  61   31   32 ar
  62   31   59 1
  63   32   60 1

#	End of record

