#	Name: ASD01881562
#	Creating user name:	WinNT
#	Creation time:	15. 06. 2019 19:42

#	Modifying user name:	WinNT
#	Modification time:	15. 06. 2019 19:42

#	Program:	/corina/corina34_cracker 3.40 0067  02.08.2006

@<TRIPOS>MOLECULE
ASD01881562
  56   59    0    0    0
SMALL
NO_CHARGES


@<TRIPOS>ATOM
   1 C1            -0.0168     1.3867     0.0097 C.ar    
   2 C2             0.0021    -0.0041     0.0020 C.ar    
   3 C3             1.2214    -0.6799    -0.0133 C.ar    
   4 C4             2.4166     0.0429    -0.0208 C.ar    
   5 C5             2.3903     1.4250    -0.0131 C.ar    
   6 C6             1.1816     2.0986     0.0020 C.ar    
   7 C7            -1.3116     2.1120     0.0198 C.ar    
   8 C8            -1.3326     3.5053     0.0274 C.ar    
   9 C9            -2.5393     4.1746     0.0368 C.ar    
  10 C10           -3.7268     3.4649     0.0387 C.ar    
  11 C11           -3.7118     2.0820     0.0315 C.ar    
  12 C12           -2.5104     1.4024     0.0158 C.ar    
  13 C13            1.2492    -2.1571    -0.0210 C.2     
  14 O14            0.2089    -2.7842    -0.0140 O.2     
  15 O15            2.4283    -2.8085    -0.0357 O.3     
  16 F16            3.5485     2.1204    -0.0200 F       
  17 C17           -2.5637     5.6814     0.0456 C.3     
  18 O18           -2.5775     6.1654    -1.2988 O.3     
  19 N19           -2.6696    11.5575    -2.2585 N.pl3   
  20 N20           -2.6737    11.4653    -3.6582 N.2     
  21 N21           -2.6547    10.2269    -4.0057 N.2     
  22 C22           -2.6373     9.4345    -2.9154 C.ar    
  23 C23           -2.6464    10.2664    -1.7823 C.ar    
  24 C24           -2.6144     8.0436    -2.7430 C.ar    
  25 C25           -2.6001     7.5144    -1.4691 C.ar    
  26 C26           -2.6091     8.3517    -0.3561 C.ar    
  27 C27           -2.6327     9.7094    -0.5086 C.ar    
  28 C28           -2.6812    12.7862    -1.4607 C.3     
  29 C29           -4.1276    13.1965    -1.1771 C.3     
  30 C30           -4.8322    12.0798    -0.4041 C.3     
  31 C31           -4.1397    14.4797    -0.3439 C.3     
  32 C32           -4.8573    13.4402    -2.4996 C.3     
  33 Br33          -2.6023     6.8991    -4.2483 Br      
  34 H34           -0.9247    -0.5586     0.0082 H       
  35 H35            3.3623    -0.4786    -0.0323 H       
  36 H36            1.1667     3.1785     0.0080 H       
  37 H37           -0.4061     4.0603     0.0264 H       
  38 H38           -4.6691     3.9927     0.0460 H       
  39 H39           -4.6418     1.5328     0.0337 H       
  40 H40           -2.4998     0.3225     0.0050 H       
  41 H41            2.3959    -3.7749    -0.0403 H       
  42 H42           -3.4570     6.0273     0.5656 H       
  43 H43           -1.6773     6.0561     0.5576 H       
  44 H44           -2.5981     7.9243     0.6357 H       
  45 H45           -2.6398    10.3501     0.3608 H       
  46 H46           -2.1613    12.6126    -0.5186 H       
  47 H47           -2.1792    13.5817    -2.0114 H       
  48 H48           -4.3124    11.9062     0.5381 H       
  49 H49           -5.8627    12.3721    -0.2020 H       
  50 H50           -4.8236    11.1657    -0.9977 H       
  51 H51           -3.6377    15.2752    -0.8946 H       
  52 H52           -5.1701    14.7720    -0.1418 H       
  53 H53           -3.6198    14.3060     0.5983 H       
  54 H54           -4.8486    12.5260    -3.0932 H       
  55 H55           -5.8877    13.7325    -2.2975 H       
  56 H56           -4.3553    14.2357    -3.0503 H       
@<TRIPOS>BOND
   1    1    2 ar
   2    1    6 ar
   3    1    7 1
   4    2    3 ar
   5    2   34 1
   6    3    4 ar
   7    3   13 1
   8    4    5 ar
   9    4   35 1
  10    5    6 ar
  11    5   16 1
  12    6   36 1
  13    7    8 ar
  14    7   12 ar
  15    8    9 ar
  16    8   37 1
  17    9   10 ar
  18    9   17 1
  19   10   11 ar
  20   10   38 1
  21   11   12 ar
  22   11   39 1
  23   12   40 1
  24   13   14 2
  25   13   15 1
  26   15   41 1
  27   17   18 1
  28   17   42 1
  29   17   43 1
  30   18   25 1
  31   19   20 1
  32   19   23 1
  33   19   28 1
  34   20   21 2
  35   21   22 1
  36   22   23 ar
  37   22   24 ar
  38   23   27 ar
  39   24   25 ar
  40   24   33 1
  41   25   26 ar
  42   26   27 ar
  43   26   44 1
  44   27   45 1
  45   28   29 1
  46   28   46 1
  47   28   47 1
  48   29   30 1
  49   29   31 1
  50   29   32 1
  51   30   48 1
  52   30   49 1
  53   30   50 1
  54   31   51 1
  55   31   52 1
  56   31   53 1
  57   32   54 1
  58   32   55 1
  59   32   56 1

#	End of record

