#	Name: ASD01814334
#	Creating user name:	WinNT
#	Creation time:	15. 06. 2019 19:32

#	Modifying user name:	WinNT
#	Modification time:	15. 06. 2019 19:32

#	Program:	/corina/corina34_cracker 3.40 0067  02.08.2006

@<TRIPOS>MOLECULE
ASD01814334
  57   61    0    0    0
SMALL
NO_CHARGES


@<TRIPOS>ATOM
   1 N1            -0.9343     1.9121    -1.4782 N.2     
   2 C2            -1.2050     0.7652    -2.0555 C.2     
   3 C3            -0.3512     0.2517    -3.0437 C.2     
   4 C4             0.7558     0.9509    -3.3968 C.2     
   5 N5             1.0140     2.1420    -2.7801 N.pl3   
   6 C6             0.1563     2.6114    -1.8190 C.2     
   7 N7             2.0471     3.0745    -2.9182 N.2     
   8 C8             1.8367     4.0713    -2.0822 C.2     
   9 C9             0.6700     3.8252    -1.3781 C.2     
  10 C10            2.4130     5.3866    -1.6188 C.3     
  11 N11            1.5224     5.9253    -0.5863 N.am    
  12 C12            0.4273     4.9641    -0.4214 C.3     
  13 C13            1.6802     7.0839     0.0840 C.2     
  14 O14            0.8157     7.4663     0.8490 O.2     
  15 C15            2.9008     7.8874    -0.1101 C.ar    
  16 C16            2.8134     9.2807    -0.2442 C.ar    
  17 C17            4.1512     7.2652    -0.1556 C.ar    
  18 C18            5.2884     8.0205    -0.3368 C.ar    
  19 C19            5.1984     9.3988    -0.4745 C.ar    
  20 C20            3.9663    10.0271    -0.4258 C.ar    
  21 O21            1.6048     9.8950    -0.1968 O.3     
  22 C22            1.6030    11.3240    -0.1967 C.3     
  23 C23            1.6888     0.4207    -4.4549 C.3     
  24 Cl24          -0.7087    -1.2658    -3.8072 Cl      
  25 C25           -2.4376    -0.0039    -1.6552 C.3     
  26 F26            6.3198    10.1312    -0.6513 F       
  27 C27            0.2933    13.3631     0.4039 C.3     
  28 C28            0.3179    11.8340     0.4614 C.3     
  29 C29            1.6667    11.8359    -1.6384 C.3     
  30 C30            1.6029    13.3649    -1.6349 C.3     
  31 N31            0.3554    13.8027    -0.9958 N.3     
  32 C32           -0.9988    13.8765     1.0426 C.3     
  33 H33            3.4077     5.2277    -1.2024 H       
  34 H34            2.4693     6.0810    -2.4571 H       
  35 H35           -0.5239     5.4440    -0.6519 H       
  36 H36            0.4151     4.5905     0.6025 H       
  37 H37            4.2258     6.1931    -0.0486 H       
  38 H38            6.2543     7.5386    -0.3714 H       
  39 H39            3.9035    11.1002    -0.5299 H       
  40 H40            2.4672    11.6894     0.3581 H       
  41 H41            1.3146    -0.5343    -4.8238 H       
  42 H42            1.7449     1.1317    -5.2791 H       
  43 H43            2.6815     0.2812    -4.0271 H       
  44 H44           -2.9730     0.5453    -0.8806 H       
  45 H45           -3.0844    -0.1311    -2.5233 H       
  46 H46           -2.1471    -0.9821    -1.2721 H       
  47 H47            1.1500    13.7608     0.9479 H       
  48 H48           -0.5461    11.4359    -0.0707 H       
  49 H49            0.2875    11.5084     1.5011 H       
  50 H50            2.5999    11.5116    -2.0988 H       
  51 H51            0.8238    11.4378    -2.2034 H       
  52 H52            2.4536    13.7626    -1.0814 H       
  53 H53            1.6337    13.7320    -2.6608 H       
  54 H54           -0.4485    13.4790    -1.5125 H       
  55 H55           -1.0446    13.5511     2.0819 H       
  56 H56           -1.0165    14.9656     1.0018 H       
  57 H57           -1.8558    13.4786     0.4991 H       
@<TRIPOS>BOND
   1    1    2 2
   2    1    6 1
   3    2    3 1
   4    2   25 1
   5    3    4 2
   6    3   24 1
   7    4    5 1
   8    4   23 1
   9    5    7 1
  10    5    6 1
  11    6    9 2
  12    7    8 2
  13    8   10 1
  14    8    9 1
  15    9   12 1
  16   10   11 1
  17   10   33 1
  18   10   34 1
  19   11   12 1
  20   11   13 am
  21   12   35 1
  22   12   36 1
  23   13   14 2
  24   13   15 1
  25   15   17 ar
  26   15   16 ar
  27   16   20 ar
  28   16   21 1
  29   17   18 ar
  30   17   37 1
  31   18   19 ar
  32   18   38 1
  33   19   20 ar
  34   19   26 1
  35   20   39 1
  36   21   22 1
  37   22   29 1
  38   22   28 1
  39   22   40 1
  40   23   41 1
  41   23   42 1
  42   23   43 1
  43   25   44 1
  44   25   45 1
  45   25   46 1
  46   27   28 1
  47   27   31 1
  48   27   32 1
  49   27   47 1
  50   28   48 1
  51   28   49 1
  52   29   30 1
  53   29   50 1
  54   29   51 1
  55   30   31 1
  56   30   52 1
  57   30   53 1
  58   31   54 1
  59   32   55 1
  60   32   56 1
  61   32   57 1

#	End of record

