#	Name: ASD00170337
#	Creating user name:	WinNT
#	Creation time:	15. 06. 2019 18:31

#	Modifying user name:	WinNT
#	Modification time:	15. 06. 2019 18:31

#	Program:	/corina/corina34_cracker 3.40 0067  02.08.2006

@<TRIPOS>MOLECULE
ASD00170337
  29   30    0    0    0
SMALL
NO_CHARGES


@<TRIPOS>ATOM
   1 C1            -0.0185     1.5118     0.0104 C.3     
   2 C2             0.0021    -0.0041     0.0020 C.2     
   3 C3             1.0772    -0.7300    -0.3285 C.2     
   4 C4             2.3997    -0.0976    -0.7337 C.3     
   5 C5             2.1396     1.3715    -1.0822 C.3     
   6 N6             1.3687     1.9995    -0.0003 N.3     
   7 C7             0.8278    -2.1566    -0.2538 C.2     
   8 C8            -0.4486    -2.4621     0.1366 C.2     
   9 S9            -1.3494    -1.0437     0.4142 S.3     
  10 C10            1.4110     3.4642    -0.1051 C.3     
  11 N11           -0.9390    -3.7457     0.2842 N.pl3   
  12 C12            1.8395    -3.1688    -0.5646 C.2     
  13 O13            2.5685    -3.5907     0.3143 O.2     
  14 N14            1.9633    -3.6334    -1.8237 N.am    
  15 N15            2.9069    -4.5776    -2.1136 N.3     
  16 H16           -0.5411     1.8756    -0.8743 H       
  17 H17           -0.5240     1.8660     0.9087 H       
  18 H18            3.1061    -0.1598     0.0941 H       
  19 H19            2.8042    -0.6159    -1.6031 H       
  20 H20            3.0905     1.8911    -1.2005 H       
  21 H21            1.5745     1.4301    -2.0124 H       
  22 H22            0.8328     3.9035     0.7077 H       
  23 H23            2.4449     3.8033    -0.0402 H       
  24 H24            0.9868     3.7724    -1.0607 H       
  25 H25           -0.3653    -4.5074     0.1069 H       
  26 H26           -1.8569    -3.8849     0.5652 H       
  27 H27            1.3824    -3.2972    -2.5240 H       
  28 H28            2.8810    -4.8265    -3.0911 H       
  29 H29            3.8273    -4.2634    -1.8448 H       
@<TRIPOS>BOND
   1    1    2 1
   2    1    6 1
   3    1   16 1
   4    1   17 1
   5    2    3 2
   6    2    9 1
   7    3    4 1
   8    3    7 1
   9    4    5 1
  10    4   18 1
  11    4   19 1
  12    5    6 1
  13    5   20 1
  14    5   21 1
  15    6   10 1
  16    7    8 2
  17    7   12 1
  18    8    9 1
  19    8   11 1
  20   10   22 1
  21   10   23 1
  22   10   24 1
  23   11   25 1
  24   11   26 1
  25   12   13 2
  26   12   14 am
  27   14   15 1
  28   14   27 1
  29   15   28 1
  30   15   29 1

#	End of record

