#	Name: ASD05062026
#	Creating user name:	WinNT
#	Creation time:	15. 06. 2019 20:56

#	Modifying user name:	WinNT
#	Modification time:	15. 06. 2019 20:56

#	Program:	/corina/corina34_cracker 3.40 0067  02.08.2006

@<TRIPOS>MOLECULE
ASD05062026
  27   29    0    0    0
SMALL
NO_CHARGES


@<TRIPOS>ATOM
   1 N1            -0.0163     1.3545     0.0095 N.pl3   
   2 C2             0.0021    -0.0041     0.0020 C.2     
   3 C3            -1.2873    -0.4350     0.0120 C.2     
   4 C4            -2.1196     0.6999     0.0260 C.2     
   5 N5            -1.3537     1.7701     0.0306 N.2     
   6 C6             1.1573     2.2312     0.0030 C.3     
   7 N7             1.1372    -0.8099    -0.0138 N.pl3   
   8 C8            -3.6037     0.6912     0.0402 C.ar    
   9 C9            -4.2933    -0.5144     0.1454 C.ar    
  10 C10           -5.6736    -0.5218     0.1584 C.ar    
  11 C11           -6.3778     0.6688     0.0665 C.ar    
  12 C12           -5.6924     1.8783    -0.0390 C.ar    
  13 C13           -4.3095     1.8898    -0.0461 C.ar    
  14 O14           -7.7186     0.9260     0.0564 O.3     
  15 C15           -7.8435     2.3286     0.3562 C.3     
  16 O16           -6.6047     2.8911    -0.1148 O.3     
  17 H17           -1.6145    -1.4643     0.0091 H       
  18 H18            1.4386     2.4542    -1.0262 H       
  19 H19            0.9208     3.1589     0.5241 H       
  20 H20            1.9859     1.7329     0.5063 H       
  21 H21            2.0189    -0.4056    -0.0206 H       
  22 H22            1.0464    -1.7756    -0.0181 H       
  23 H23           -3.7479    -1.4439     0.2164 H       
  24 H24           -6.2064    -1.4576     0.2400 H       
  25 H25           -3.7772     2.8260    -0.1274 H       
  26 H26           -8.6886     2.7610    -0.1796 H       
  27 H27           -7.9503     2.4827     1.4300 H       
@<TRIPOS>BOND
   1    1    2 1
   2    1    6 1
   3    1    5 1
   4    2    3 2
   5    2    7 1
   6    3    4 1
   7    3   17 1
   8    4    5 2
   9    4    8 1
  10    6   18 1
  11    6   19 1
  12    6   20 1
  13    7   21 1
  14    7   22 1
  15    8    9 ar
  16    8   13 ar
  17    9   10 ar
  18    9   23 1
  19   10   11 ar
  20   10   24 1
  21   11   12 ar
  22   11   14 1
  23   12   13 ar
  24   12   16 1
  25   13   25 1
  26   14   15 1
  27   15   16 1
  28   15   26 1
  29   15   27 1

#	End of record

