#	Name: ASD03090684
#	Creating user name:	WinNT
#	Creation time:	15. 06. 2019 20:29

#	Modifying user name:	WinNT
#	Modification time:	15. 06. 2019 20:29

#	Program:	/corina/corina34_cracker 3.40 0067  02.08.2006

@<TRIPOS>MOLECULE
ASD03090684
  33   34    0    0    0
SMALL
NO_CHARGES


@<TRIPOS>ATOM
   1 N1            -0.0162     1.3436     0.0094 N.am    
   2 C2            -0.2136     0.1138    -0.5056 C.2     
   3 O3             0.6751    -0.4342    -1.1288 O.2     
   4 N4            -1.3962    -0.5084    -0.3300 N.am    
   5 S5            -3.0387    -2.6973    -0.7264 S.3     
   6 C6            -1.5999    -1.7773    -0.8614 C.2     
   7 N7            -0.7308    -2.4614    -1.5425 N.2     
   8 N8            -1.0770    -3.6032    -1.9551 N.2     
   9 C9            -2.2773    -3.9877    -1.6573 C.2     
  10 C10           -2.9100    -5.3014    -2.0380 C.3     
  11 F11           -1.9613    -6.1087    -2.6748 F       
  12 F12           -3.3740    -5.9466    -0.8867 F       
  13 F13           -3.9820    -5.0684    -2.9062 F       
  14 C14            1.2492     1.9407    -0.0679 C.ar    
  15 C15            1.3599     3.3167    -0.2180 C.ar    
  16 C16            2.6070     3.9045    -0.2937 C.ar    
  17 C17            3.7493     3.1206    -0.2201 C.ar    
  18 C18            3.6394     1.7462    -0.0702 C.ar    
  19 C19            2.3926     1.1575     0.0114 C.ar    
  20 C20            0.1192     4.1683    -0.2989 C.3     
  21 O21            4.9772     3.7000    -0.2956 O.3     
  22 C22            6.1099     2.8328    -0.2129 C.3     
  23 H23           -0.7510     1.8169     0.4301 H       
  24 H24           -2.1051    -0.0713     0.1672 H       
  25 H25            2.6932     4.9747    -0.4104 H       
  26 H26            4.5291     1.1365    -0.0130 H       
  27 H27            2.3072     0.0877     0.1322 H       
  28 H28           -0.1705     4.4843     0.7032 H       
  29 H29            0.3205     5.0462    -0.9128 H       
  30 H30           -0.6897     3.5902    -0.7457 H       
  31 H31            6.0937     2.3038     0.7400 H       
  32 H32            6.0757     2.1115    -1.0295 H       
  33 H33            7.0243     3.4215    -0.2862 H       
@<TRIPOS>BOND
   1    1    2 am
   2    1   14 1
   3    1   23 1
   4    2    3 2
   5    2    4 am
   6    4    6 1
   7    4   24 1
   8    5    6 1
   9    5    9 1
  10    6    7 2
  11    7    8 1
  12    8    9 2
  13    9   10 1
  14   10   11 1
  15   10   12 1
  16   10   13 1
  17   14   15 ar
  18   14   19 ar
  19   15   16 ar
  20   15   20 1
  21   16   17 ar
  22   16   25 1
  23   17   18 ar
  24   17   21 1
  25   18   19 ar
  26   18   26 1
  27   19   27 1
  28   20   28 1
  29   20   29 1
  30   20   30 1
  31   21   22 1
  32   22   31 1
  33   22   32 1
  34   22   33 1

#	End of record

