#	Name: ASD01917576
#	Creating user name:	WinNT
#	Creation time:	15. 06. 2019 20:09

#	Modifying user name:	WinNT
#	Modification time:	15. 06. 2019 20:09

#	Program:	/corina/corina34_cracker 3.40 0067  02.08.2006

@<TRIPOS>MOLECULE
ASD01917576
  41   44    0    0    0
SMALL
NO_CHARGES


@<TRIPOS>ATOM
   1 C1            -0.0166     1.3748     0.0096 C.ar    
   2 C2             0.0021    -0.0041     0.0020 C.ar    
   3 C3             1.2078    -0.6832    -0.0127 C.ar    
   4 C4             2.4030     0.0145    -0.0203 C.ar    
   5 C5             2.4005     1.3935    -0.0129 C.ar    
   6 C6             1.1866     2.0866     0.0019 C.ar    
   7 C7             1.1756     3.5186     0.0093 C.1     
   8 C8             1.1665     4.6925     0.0153 C.1     
   9 C9             1.1555     6.1244     0.0226 C.2     
  10 S10            2.5809     7.1582     0.0145 S.3     
  11 C11            1.5442     8.5792     0.0331 C.2     
  12 C12            0.2535     8.1839     0.0399 C.2     
  13 N13            0.0905     6.8720     0.0307 N.2     
  14 C14           -0.9088     9.1683     0.0384 C.3     
  15 C15           -0.4129    10.5325     0.5219 C.3     
  16 N16            0.8337    10.8684    -0.1824 N.am    
  17 C17            2.0107    10.0180     0.0430 C.3     
  18 C18            0.8967    11.9192    -1.0240 C.2     
  19 O19           -0.0852    12.6060    -1.2112 O.2     
  20 C20            2.1873    12.2407    -1.7326 C.3     
  21 C21            2.0943    13.4670    -2.6558 C.3     
  22 C22            3.1723    13.0564    -0.8787 C.3     
  23 C23            3.4956    13.8531    -2.1536 C.3     
  24 H24           -0.9584     1.9034     0.0169 H       
  25 H25           -0.9266    -0.5554     0.0079 H       
  26 H26            1.2161    -1.7631    -0.0178 H       
  27 H27            3.3400    -0.5224    -0.0318 H       
  28 H28            3.3340     1.9366    -0.0182 H       
  29 H29           -1.3052     9.2623    -0.9726 H       
  30 H30           -1.6919     8.8081     0.7055 H       
  31 H31           -1.1669    11.2904     0.3098 H       
  32 H32           -0.2260    10.4929     1.5950 H       
  33 H33            2.4500    10.2580     1.0113 H       
  34 H34            2.7456    10.1742    -0.7467 H       
  35 H35            2.6375    11.3693    -2.2082 H       
  36 H36            2.0645    13.2144    -3.7157 H       
  37 H37            1.3166    14.1736    -2.3661 H       
  38 H38            2.6893    13.6508    -0.1031 H       
  39 H39            4.0128    12.4723    -0.5039 H       
  40 H40            4.3047    13.4230    -2.7438 H       
  41 H41            3.6182    14.9224    -1.9810 H       
@<TRIPOS>BOND
   1    1    2 ar
   2    1    6 ar
   3    1   24 1
   4    2    3 ar
   5    2   25 1
   6    3    4 ar
   7    3   26 1
   8    4    5 ar
   9    4   27 1
  10    5    6 ar
  11    5   28 1
  12    6    7 1
  13    7    8 3
  14    8    9 1
  15    9   10 1
  16    9   13 2
  17   10   11 1
  18   11   17 1
  19   11   12 2
  20   12   13 1
  21   12   14 1
  22   14   15 1
  23   14   29 1
  24   14   30 1
  25   15   16 1
  26   15   31 1
  27   15   32 1
  28   16   17 1
  29   16   18 am
  30   17   33 1
  31   17   34 1
  32   18   19 2
  33   18   20 1
  34   20   21 1
  35   20   22 1
  36   20   35 1
  37   21   23 1
  38   21   36 1
  39   21   37 1
  40   22   23 1
  41   22   38 1
  42   22   39 1
  43   23   40 1
  44   23   41 1

#	End of record

