#	Name: ASD00060027
#	Creating user name:	WinNT
#	Creation time:	15. 06. 2019 18:29

#	Modifying user name:	WinNT
#	Modification time:	15. 06. 2019 18:29

#	Program:	/corina/corina34_cracker 3.40 0067  02.08.2006

@<TRIPOS>MOLECULE
ASD00060027
  60   64    0    0    0
SMALL
NO_CHARGES


@<TRIPOS>ATOM
   1 O1             0.0512    -0.0023    -0.0102 O.2     
   2 C2            -0.0144     1.2123     0.0087 C.2     
   3 C3             1.2174     2.0157    -0.0115 C.2     
   4 C4             2.4654     1.4025     0.0785 C.2     
   5 C5             3.6114     2.1971     0.0561 C.2     
   6 C6             3.5033     3.5461    -0.0515 C.2     
   7 N7             2.2937     4.1489    -0.1389 N.am    
   8 C8             1.1561     3.4284    -0.1288 C.2     
   9 O9             0.0768     3.9890    -0.2084 O.2     
  10 C10            2.2220     5.6077    -0.2532 C.3     
  11 C11            2.2456     5.9993    -1.7083 C.ar    
  12 C12            1.0611     6.1170    -2.4108 C.ar    
  13 C13            1.0803     6.4757    -3.7459 C.ar    
  14 C14            2.2861     6.7177    -4.3800 C.ar    
  15 C15            3.4746     6.5999    -3.6749 C.ar    
  16 C16            3.4517     6.2458    -2.3375 C.ar    
  17 F17            4.6531     6.8352    -4.2921 F       
  18 F18            2.3056     7.0678    -5.6847 F       
  19 N19           -1.2160     1.8218     0.0426 N.am    
  20 C20           -2.4431     1.0283    -0.0623 C.3     
  21 C21           -2.7655     0.7916    -1.5152 C.ar    
  22 C22           -3.2418    -0.4395    -1.9258 C.ar    
  23 C23           -3.5375    -0.6566    -3.2586 C.ar    
  24 C24           -3.3575     0.3574    -4.1807 C.ar    
  25 C25           -2.8821     1.5888    -3.7699 C.ar    
  26 C26           -2.5905     1.8073    -2.4365 C.ar    
  27 C27           -3.5971     1.7839     0.5997 C.3     
  28 O28           -3.8601     2.9849    -0.1286 O.3     
  29 C29           -4.8641     3.7783     0.3311 C.ar    
  30 C30           -5.5796     3.4049     1.4609 C.ar    
  31 C31           -6.6008     4.2060     1.9334 C.ar    
  32 C32           -6.9125     5.3870     1.2782 C.ar    
  33 C33           -6.1940     5.7649     0.1419 C.ar    
  34 C34           -5.1669     4.9602    -0.3258 C.ar    
  35 N35           -6.7287     6.9770    -0.2881 N.am    
  36 C36           -7.7266     7.3216     0.5473 C.2     
  37 O37           -8.4031     8.3287     0.4529 O.2     
  38 N38           -7.8627     6.3832     1.5031 N.am    
  39 H39            2.5440     0.3288     0.1646 H       
  40 H40            4.5867     1.7383     0.1249 H       
  41 H41            4.3987     4.1498    -0.0673 H       
  42 H42            1.2983     5.9629     0.2037 H       
  43 H43            3.0751     6.0545     0.2572 H       
  44 H44            0.1197     5.9283    -1.9164 H       
  45 H45            0.1541     6.5668    -4.2939 H       
  46 H46            4.3765     6.1542    -1.7873 H       
  47 H47           -1.2684     2.7858     0.1364 H       
  48 H48           -2.3006     0.0710     0.4389 H       
  49 H49           -3.3824    -1.2317    -1.2054 H       
  50 H50           -3.9089    -1.6186    -3.5795 H       
  51 H51           -3.5879     0.1875    -5.2220 H       
  52 H52           -2.7412     2.3809    -4.4904 H       
  53 H53           -2.2191     2.7693    -2.1155 H       
  54 H54           -4.4887     1.1569     0.6007 H       
  55 H55           -3.3270     2.0330     1.6259 H       
  56 H56           -5.3371     2.4848     1.9718 H       
  57 H57           -7.1559     3.9124     2.8121 H       
  58 H58           -4.6093     5.2497    -1.2043 H       
  59 H59           -6.4323     7.4865    -1.0584 H       
  60 H60           -8.5110     6.3972     2.2245 H       
@<TRIPOS>BOND
   1    1    2 2
   2    2    3 1
   3    2   19 am
   4    3    4 2
   5    3    8 1
   6    4    5 1
   7    4   39 1
   8    5    6 2
   9    5   40 1
  10    6    7 1
  11    6   41 1
  12    7    8 am
  13    7   10 1
  14    8    9 2
  15   10   11 1
  16   10   42 1
  17   10   43 1
  18   11   12 ar
  19   11   16 ar
  20   12   13 ar
  21   12   44 1
  22   13   14 ar
  23   13   45 1
  24   14   15 ar
  25   14   18 1
  26   15   16 ar
  27   15   17 1
  28   16   46 1
  29   19   20 1
  30   19   47 1
  31   20   21 1
  32   20   27 1
  33   20   48 1
  34   21   22 ar
  35   21   26 ar
  36   22   23 ar
  37   22   49 1
  38   23   24 ar
  39   23   50 1
  40   24   25 ar
  41   24   51 1
  42   25   26 ar
  43   25   52 1
  44   26   53 1
  45   27   28 1
  46   27   54 1
  47   27   55 1
  48   28   29 1
  49   29   30 ar
  50   29   34 ar
  51   30   31 ar
  52   30   56 1
  53   31   32 ar
  54   31   57 1
  55   32   33 ar
  56   32   38 1
  57   33   34 ar
  58   33   35 1
  59   34   58 1
  60   35   36 am
  61   35   59 1
  62   36   37 2
  63   36   38 am
  64   38   60 1

#	End of record

