#	Name: ASD01811859
#	Creating user name:	WinNT
#	Creation time:	15. 06. 2019 19:27

#	Modifying user name:	WinNT
#	Modification time:	15. 06. 2019 19:27

#	Program:	/corina/corina34_cracker 3.40 0067  02.08.2006

@<TRIPOS>MOLECULE
ASD01811859
  54   58    0    0    0
SMALL
NO_CHARGES


@<TRIPOS>ATOM
   1 N1            -0.0158     1.3124     0.0093 N.ar    
   2 C2             0.0021    -0.0041     0.0020 C.ar    
   3 C3             1.1968    -0.7055    -0.0132 C.ar    
   4 C4             2.3959    -0.0149    -0.0209 C.ar    
   5 C5             1.1067     2.0194     0.0023 C.ar    
   6 C6             1.4022     3.4636     0.0068 C.2     
   7 C7             2.3561     1.3764    -0.0130 C.ar    
   8 N8             3.3288     2.3533    -0.0175 N.pl3   
   9 C9             2.7617     3.5823    -0.0058 C.2     
  10 C10            0.4245     4.5603     0.0214 C.2     
  11 O11           -0.7668     4.3132     0.0313 O.2     
  12 N12            0.8473     5.8400     0.0239 N.am    
  13 C13           -0.1275     6.9335     0.0384 C.3     
  14 C14           -0.9345     9.6191     0.8868 C.3     
  15 C15           -0.5147     9.3293    -0.5556 C.3     
  16 C16            0.5033     8.1872    -0.5708 C.3     
  17 C17           -0.5472     7.2234     1.4809 C.3     
  18 C18           -1.5653     8.3654     1.4961 C.3     
  19 O19            0.8954     7.9165    -1.9181 O.3     
  20 C20            4.7713     2.0977    -0.0324 C.3     
  21 C21            5.2309     1.8949    -1.4532 C.ar    
  22 C22            5.6537     0.4532    -3.3126 C.ar    
  23 C23            5.2256     0.6433    -1.9887 C.ar    
  24 C24            5.6504     2.9919    -2.2034 C.ar    
  25 C25            6.0714     2.8439    -3.4888 C.ar    
  26 C26            6.0859     1.5662    -4.0754 C.ar    
  27 N27            6.4954     1.3902    -5.3357 N.ar    
  28 C28            6.5071     0.2017    -5.8887 C.ar    
  29 C29            6.0947    -0.9339    -5.1948 C.ar    
  30 C30            5.6643    -0.8245    -3.9032 C.ar    
  31 H31           -0.9315    -0.5470     0.0084 H       
  32 H32            1.1923    -1.7855    -0.0186 H       
  33 H33            3.3386    -0.5419    -0.0324 H       
  34 H34            3.3036     4.5165    -0.0066 H       
  35 H35            1.7971     6.0370     0.0160 H       
  36 H36           -1.0031     6.6475    -0.5443 H       
  37 H37           -0.0589     9.9051     1.4696 H       
  38 H38           -1.6598    10.4327     0.8977 H       
  39 H39           -1.3903     9.0432    -1.1383 H       
  40 H40           -0.0653    10.2224    -0.9897 H       
  41 H41            1.3790     8.4733     0.0119 H       
  42 H42           -0.9966     6.3302     1.9150 H       
  43 H43            0.3284     7.5094     2.0636 H       
  44 H44           -1.8643     8.5719     2.5238 H       
  45 H45           -2.4409     8.0794     0.9134 H       
  46 H46            1.3039     8.6690    -2.3676 H       
  47 H47            5.2957     2.9493     0.4011 H       
  48 H48            4.9877     1.2026     0.5508 H       
  49 H49            4.8945    -0.1985    -1.3988 H       
  50 H50            5.6408     3.9755    -1.7574 H       
  51 H51            6.3929     3.7046    -4.0564 H       
  52 H52            6.8449     0.1002    -6.9095 H       
  53 H53            6.1150    -1.8996    -5.6778 H       
  54 H54            5.3419    -1.6943    -3.3501 H       
@<TRIPOS>BOND
   1    1    2 ar
   2    1    5 ar
   3    2    3 ar
   4    2   31 1
   5    3    4 ar
   6    3   32 1
   7    4    7 ar
   8    4   33 1
   9    5    7 ar
  10    5    6 1
  11    6    9 2
  12    6   10 1
  13    7    8 1
  14    8    9 1
  15    8   20 1
  16    9   34 1
  17   10   11 2
  18   10   12 am
  19   12   13 1
  20   12   35 1
  21   13   17 1
  22   13   16 1
  23   13   36 1
  24   14   15 1
  25   14   18 1
  26   14   37 1
  27   14   38 1
  28   15   16 1
  29   15   39 1
  30   15   40 1
  31   16   19 1
  32   16   41 1
  33   17   18 1
  34   17   42 1
  35   17   43 1
  36   18   44 1
  37   18   45 1
  38   19   46 1
  39   20   21 1
  40   20   47 1
  41   20   48 1
  42   21   24 ar
  43   21   23 ar
  44   22   23 ar
  45   22   26 ar
  46   22   30 ar
  47   23   49 1
  48   24   25 ar
  49   24   50 1
  50   25   26 ar
  51   25   51 1
  52   26   27 ar
  53   27   28 ar
  54   28   29 ar
  55   28   52 1
  56   29   30 ar
  57   29   53 1
  58   30   54 1

#	End of record

