#	Name: ASD03200075
#	Creating user name:	WinNT
#	Creation time:	15. 06. 2019 20:34

#	Modifying user name:	WinNT
#	Modification time:	15. 06. 2019 20:34

#	Program:	/corina/corina34_cracker 3.40 0067  02.08.2006

@<TRIPOS>MOLECULE
ASD03200075
  23   23    0    0    0
SMALL
NO_CHARGES


@<TRIPOS>ATOM
   1 C1            -0.1016     1.2320    -0.6379 C.ar    
   2 C2            -2.3156     0.1179     0.6009 C.ar    
   3 F3            -1.0198    -1.7749     1.1936 F       
   4 C4            -1.1124    -0.5656     0.5984 C.ar    
   5 C5             0.0011    -0.0056    -0.0182 C.ar    
   6 N6             1.2233    -0.6892    -0.0143 N.am    
   7 C7             2.3789    -0.0043    -0.1243 C.2     
   8 C8             3.6966    -0.7293    -0.0287 C.3     
   9 C9             4.8424     0.2725    -0.1851 C.3     
  10 S10            6.4285    -0.6002    -0.0700 S.3     
  11 O11            2.3582     1.1956    -0.3002 O.2     
  12 C12           -1.3074     1.9069    -0.6364 C.ar    
  13 C13           -2.4122     1.3520    -0.0182 C.ar    
  14 Cl14          -3.7075    -0.5785     1.3698 Cl      
  15 H15            0.7617     1.6694    -1.1172 H       
  16 H16            1.2383    -1.6556     0.0676 H       
  17 H17            3.7722    -1.2191     0.9421 H       
  18 H18            3.7577    -1.4775    -0.8189 H       
  19 H19            4.7667     0.7623    -1.1559 H       
  20 H20            4.7812     1.0208     0.6051 H       
  21 H21            7.3289     0.3873    -0.2223 H       
  22 H22           -1.3866     2.8699    -1.1188 H       
  23 H23           -3.3530     1.8824    -0.0186 H       
@<TRIPOS>BOND
   1    1    5 ar
   2    1   15 1
   3    1   12 ar
   4    2    4 ar
   5    2   14 1
   6    2   13 ar
   7    3    4 1
   8    4    5 ar
   9    5    6 1
  10    6    7 am
  11    6   16 1
  12    7    8 1
  13    7   11 2
  14    8    9 1
  15    8   17 1
  16    8   18 1
  17    9   10 1
  18    9   19 1
  19    9   20 1
  20   10   21 1
  21   12   13 ar
  22   12   22 1
  23   13   23 1

#	End of record

