#	Name: ASD01915023
#	Creating user name:	WinNT
#	Creation time:	15. 06. 2019 20:04

#	Modifying user name:	WinNT
#	Modification time:	15. 06. 2019 20:04

#	Program:	/corina/corina34_cracker 3.40 0067  02.08.2006

@<TRIPOS>MOLECULE
ASD01915023
  47   50    0    0    0
SMALL
NO_CHARGES


@<TRIPOS>ATOM
   1 C1            -0.2248     1.4606    -1.1259 C.ar    
   2 C2            -0.2362     0.0854    -1.2800 C.ar    
   3 C3             0.9617    -0.6065    -1.1439 C.ar    
   4 C4             2.1186     0.0955    -0.8609 C.ar    
   5 N5             2.0954     1.4075    -0.7194 N.ar    
   6 C6             0.9755     2.0994    -0.8421 C.ar    
   7 O7             0.9988     3.4477    -0.6893 O.3     
   8 C8             2.2637     4.0459    -0.3986 C.3     
   9 C9             2.0950     5.5373    -0.2641 C.2     
  10 C10            0.8929     6.2459    -0.3938 C.2     
  11 N11            3.0471     6.4012     0.0009 N.2     
  12 C12            1.2294     7.5545    -0.1939 C.2     
  13 C13            0.4213     8.7835    -0.1950 C.2     
  14 N14            2.5832     7.5880     0.0587 N.pl3   
  15 C15            3.2696     8.8514     0.3543 C.3     
  16 C16            2.5534     9.9939    -0.3643 C.3     
  17 N17            1.1054     9.9531    -0.1745 N.am    
  18 O18           -0.7946     8.7517    -0.2137 O.2     
  19 C19            3.2481     9.1037     1.8632 C.3     
  20 F20            0.9949    -1.9495    -1.2861 F       
  21 C21            0.4094    11.1493     0.0384 C.ar    
  22 C22            0.3123    12.0873    -0.9810 C.ar    
  23 C23           -0.3742    13.2667    -0.7703 C.ar    
  24 C24           -0.9664    13.5149     0.4594 C.ar    
  25 C25           -0.8694    12.5785     1.4784 C.ar    
  26 C26           -0.1889    11.3957     1.2671 C.ar    
  27 O27           -1.6418    14.6767     0.6663 O.3     
  28 C28           -2.2267    14.8663     1.9563 C.3     
  29 H29           -1.1365     2.0302    -1.2293 H       
  30 H30           -1.1547    -0.4382    -1.5006 H       
  31 H31            3.0525    -0.4362    -0.7539 H       
  32 H32            2.6522     3.6385     0.5348 H       
  33 H33            2.9619     3.8306    -1.2075 H       
  34 H34           -0.0869     5.8445    -0.6063 H       
  35 H35            4.3018     8.7943     0.0088 H       
  36 H36            2.9318    10.9423     0.0169 H       
  37 H37            2.7725     9.9322    -1.4303 H       
  38 H38            3.7557     8.2863     2.3755 H       
  39 H39            3.7579    10.0419     2.0820 H       
  40 H40            2.2154     9.1625     2.2071 H       
  41 H41            0.7739    11.8946    -1.9382 H       
  42 H42           -0.4499    13.9963    -1.5630 H       
  43 H43           -1.3301    12.7727     2.4357 H       
  44 H44           -0.1179    10.6645     2.0588 H       
  45 H45           -2.7340    15.8305     1.9870 H       
  46 H46           -2.9463    14.0707     2.1494 H       
  47 H47           -1.4458    14.8422     2.7163 H       
@<TRIPOS>BOND
   1    1    2 ar
   2    1    6 ar
   3    1   29 1
   4    2    3 ar
   5    2   30 1
   6    3    4 ar
   7    3   20 1
   8    4    5 ar
   9    4   31 1
  10    5    6 ar
  11    6    7 1
  12    7    8 1
  13    8    9 1
  14    8   32 1
  15    8   33 1
  16    9   11 2
  17    9   10 1
  18   10   12 2
  19   10   34 1
  20   11   14 1
  21   12   14 1
  22   12   13 1
  23   13   17 am
  24   13   18 2
  25   14   15 1
  26   15   16 1
  27   15   19 1
  28   15   35 1
  29   16   17 1
  30   16   36 1
  31   16   37 1
  32   17   21 1
  33   19   38 1
  34   19   39 1
  35   19   40 1
  36   21   22 ar
  37   21   26 ar
  38   22   23 ar
  39   22   41 1
  40   23   24 ar
  41   23   42 1
  42   24   25 ar
  43   24   27 1
  44   25   26 ar
  45   25   43 1
  46   26   44 1
  47   27   28 1
  48   28   45 1
  49   28   46 1
  50   28   47 1

#	End of record

