#	Name: ASD04590696
#	Creating user name:	WinNT
#	Creation time:	15. 06. 2019 20:51

#	Modifying user name:	WinNT
#	Modification time:	15. 06. 2019 20:51

#	Program:	/corina/corina34_cracker 3.40 0067  02.08.2006

@<TRIPOS>MOLECULE
ASD04590696
  58   63    0    0    0
SMALL
NO_CHARGES


@<TRIPOS>ATOM
   1 N1            -0.0171     1.3232    -0.0119 N.ar    
   2 C2             0.0017    -0.0035    -0.0051 C.ar    
   3 N3             1.1299    -0.6950    -0.0118 N.ar    
   4 C4             2.3048    -0.0731    -0.0262 C.ar    
   5 C5             2.3187     1.3362    -0.0341 C.ar    
   6 C6             1.1074     2.0201    -0.0262 C.ar    
   7 N7             3.6040    -0.5191    -0.0362 N.pl3   
   8 C8             4.4805     0.5451    -0.0506 C.ar    
   9 C9             3.7318     1.7363    -0.0499 C.ar    
  10 N10           -1.2019    -0.6887     0.0098 N.pl3   
  11 C11           -2.4018     0.0120     0.1303 C.ar    
  12 C12            4.0027    -1.9288    -0.0323 C.3     
  13 C13            3.4621    -2.6259     1.2285 C.3     
  14 C14            5.8788     0.6375    -0.0645 C.ar    
  15 N15            6.4719     1.8256    -0.0764 N.ar    
  16 C16            5.7906     2.9531    -0.0760 C.ar    
  17 C17            4.4080     2.9543    -0.0636 C.ar    
  18 C18            2.5290    -3.7541     0.7425 C.3     
  19 C19            3.0211    -4.0619    -0.6935 C.3     
  20 C20            3.3791    -2.6577    -1.2404 C.3     
  21 N21           -2.3783     1.3197     0.3309 N.ar    
  22 C22           -3.4884     2.0231     0.4504 C.ar    
  23 C23           -4.7291     1.4090     0.3690 C.ar    
  24 C24           -4.7935     0.0324     0.1583 C.ar    
  25 C25           -3.6093    -0.6708     0.0326 C.ar    
  26 N26           -5.9023     2.1619     0.4972 N.3     
  27 C27           -5.5952     3.5828     0.7126 C.3     
  28 C28           -6.8998     4.3812     0.7680 C.3     
  29 N29           -7.7456     3.8582     1.8500 N.3     
  30 C30           -8.0527     2.4373     1.6346 C.3     
  31 C31           -6.7481     1.6390     1.5792 C.3     
  32 C32            6.6719    -0.5549    -0.0656 C.1     
  33 N33            7.3010    -1.5008    -0.0664 N.1     
  34 H34            1.0852     3.0998    -0.0323 H       
  35 H35           -1.2103    -1.6559    -0.0635 H       
  36 H36            5.0891    -2.0094    -0.0667 H       
  37 H37            4.2862    -3.0456     1.8055 H       
  38 H38            2.9032    -1.9154     1.8375 H       
  39 H39            6.3216     3.8935    -0.0856 H       
  40 H40            3.8606     3.8853    -0.0629 H       
  41 H41            2.6313    -4.6340     1.3777 H       
  42 H42            1.4940    -3.4126     0.7261 H       
  43 H43            3.9018    -4.7037    -0.6708 H       
  44 H44            2.2261    -4.5158    -1.2853 H       
  45 H45            2.4814    -2.1391    -1.5771 H       
  46 H46            4.1019    -2.7375    -2.0524 H       
  47 H47           -3.4300     3.0891     0.6138 H       
  48 H48           -5.7459    -0.4725     0.0910 H       
  49 H49           -3.6221    -1.7381    -0.1316 H       
  50 H50           -5.0569     3.7000     1.6532 H       
  51 H51           -4.9786     3.9501    -0.1078 H       
  52 H52           -6.6759     5.4312     0.9566 H       
  53 H53           -7.4250     4.2861    -0.1824 H       
  54 H54           -7.3120     4.0021     2.7496 H       
  55 H55           -8.6692     2.0701     2.4550 H       
  56 H56           -8.5909     2.3202     0.6940 H       
  57 H57           -6.9720     0.5890     1.3906 H       
  58 H58           -6.2229     1.7341     2.5296 H       
@<TRIPOS>BOND
   1    1    2 ar
   2    1    6 ar
   3    2    3 ar
   4    2   10 1
   5    3    4 ar
   6    4    5 ar
   7    4    7 1
   8    5    6 ar
   9    5    9 1
  10    6   34 1
  11    7    8 1
  12    7   12 1
  13    8    9 ar
  14    8   14 ar
  15    9   17 ar
  16   10   11 1
  17   10   35 1
  18   11   21 ar
  19   11   25 ar
  20   12   13 1
  21   12   20 1
  22   12   36 1
  23   13   18 1
  24   13   37 1
  25   13   38 1
  26   14   15 ar
  27   14   32 1
  28   15   16 ar
  29   16   17 ar
  30   16   39 1
  31   17   40 1
  32   18   19 1
  33   18   41 1
  34   18   42 1
  35   19   20 1
  36   19   43 1
  37   19   44 1
  38   20   45 1
  39   20   46 1
  40   21   22 ar
  41   22   23 ar
  42   22   47 1
  43   23   24 ar
  44   23   26 1
  45   24   25 ar
  46   24   48 1
  47   25   49 1
  48   26   27 1
  49   26   31 1
  50   27   28 1
  51   27   50 1
  52   27   51 1
  53   28   29 1
  54   28   52 1
  55   28   53 1
  56   29   30 1
  57   29   54 1
  58   30   31 1
  59   30   55 1
  60   30   56 1
  61   31   57 1
  62   31   58 1
  63   32   33 3

#	End of record

