#	Name: ASD01918083
#	Creating user name:	WinNT
#	Creation time:	15. 06. 2019 20:10

#	Modifying user name:	WinNT
#	Modification time:	15. 06. 2019 20:10

#	Program:	/corina/corina34_cracker 3.40 0067  02.08.2006

@<TRIPOS>MOLECULE
ASD01918083
  44   47    0    0    0
SMALL
NO_CHARGES


@<TRIPOS>ATOM
   1 N1             4.8237    -0.4044    -2.1416 N.ar    
   2 C2             5.2895     0.2916    -3.1594 C.ar    
   3 C3             5.1748     1.6745    -3.1868 C.ar    
   4 C4             4.5595     2.3233    -2.1227 C.ar    
   5 C5             4.0813     1.5534    -1.0679 C.ar    
   6 C6             4.2342     0.1750    -1.1146 C.ar    
   7 O7             3.4725     2.1431    -0.0057 O.3     
   8 C8             3.4500     3.5022     0.0439 C.2     
   9 N9             2.1949     5.5134    -0.0207 N.pl3   
  10 C10            2.2665     4.1538    -0.0651 C.2     
  11 C11            4.6508     4.2060     0.2127 C.2     
  12 C12            4.6245     5.5938     0.2634 C.2     
  13 C13            3.3312     6.2681     0.1371 C.2     
  14 C14            5.8650     6.3666     0.4401 C.2     
  15 N15            5.8193     7.7128     0.4869 N.am    
  16 O16            6.9311     5.7903     0.5438 O.2     
  17 C17            1.1683     6.4046    -0.1023 C.2     
  18 N18            1.6810     7.6036    -0.0062 N.2     
  19 N19            2.9575     7.5322     0.1417 N.2     
  20 O20            5.6581     2.3848    -4.2399 O.3     
  21 C21            6.2770     1.6435    -5.2932 C.3     
  22 C22            6.9768     8.4404     0.7594 C.ar    
  23 N23            8.1367     7.8115     0.8639 N.ar    
  24 C24            6.9022     9.8199     0.9131 C.ar    
  25 C25            8.0582    10.5312     1.1830 C.ar    
  26 C26            9.2555     9.8337     1.2904 C.ar    
  27 C27            9.2560     8.4610     1.1203 C.ar    
  28 C28           10.5509     7.6980     1.2299 C.3     
  29 F29           10.4070    10.4899     1.5526 F       
  30 H30            5.7665    -0.2204    -3.9820 H       
  31 H31            4.4556     3.3983    -2.1151 H       
  32 H32            3.8658    -0.4305    -0.2997 H       
  33 H33            1.3591     3.5817    -0.1906 H       
  34 H34            5.5866     3.6745     0.3028 H       
  35 H35            4.9811     8.1754     0.3309 H       
  36 H36            0.1230     6.1651    -0.2306 H       
  37 H37            6.6177     2.3295    -6.0687 H       
  38 H38            7.1289     1.0911    -4.8968 H       
  39 H39            5.5563     0.9444    -5.7175 H       
  40 H40            5.9545    10.3300     0.8227 H       
  41 H41            8.0307    11.6037     1.3070 H       
  42 H42           11.0217     7.6385     0.2487 H       
  43 H43           11.2178     8.2116     1.9224 H       
  44 H44           10.3497     6.6919     1.5980 H       
@<TRIPOS>BOND
   1    1    2 ar
   2    1    6 ar
   3    2    3 ar
   4    2   30 1
   5    3    4 ar
   6    3   20 1
   7    4    5 ar
   8    4   31 1
   9    5    6 ar
  10    5    7 1
  11    6   32 1
  12    7    8 1
  13    8   11 1
  14    8   10 2
  15    9   10 1
  16    9   17 1
  17    9   13 1
  18   10   33 1
  19   11   12 2
  20   11   34 1
  21   12   13 1
  22   12   14 1
  23   13   19 2
  24   14   15 am
  25   14   16 2
  26   15   22 1
  27   15   35 1
  28   17   18 2
  29   17   36 1
  30   18   19 1
  31   20   21 1
  32   21   37 1
  33   21   38 1
  34   21   39 1
  35   22   24 ar
  36   22   23 ar
  37   23   27 ar
  38   24   25 ar
  39   24   40 1
  40   25   26 ar
  41   25   41 1
  42   26   27 ar
  43   26   29 1
  44   27   28 1
  45   28   42 1
  46   28   43 1
  47   28   44 1

#	End of record

