#	Name: ASD03490036
#	Creating user name:	WinNT
#	Creation time:	15. 06. 2019 20:42

#	Modifying user name:	WinNT
#	Modification time:	15. 06. 2019 20:42

#	Program:	/corina/corina34_cracker 3.40 0067  02.08.2006

@<TRIPOS>MOLECULE
ASD03490036
  64   65    0    0    0
SMALL
NO_CHARGES


@<TRIPOS>ATOM
   1 O1            -0.5642     1.7470     0.8299 O.3     
   2 C2            -0.3447     0.4229     0.8096 C.2     
   3 C3            -1.4829    -0.5254     0.5335 C.3     
   4 O4             0.7654    -0.0086     1.0127 O.2     
   5 O5            -1.0274    -1.8720     0.6797 O.3     
   6 C6            -2.6198    -0.2607     1.5241 C.3     
   7 O7            -1.9576    -0.3249    -0.7994 O.3     
   8 C8            -3.0261    -1.1961    -1.1754 C.3     
   9 C9            -4.2251    -0.9581    -0.2537 C.3     
  10 C10           -3.7958    -1.1868     1.1991 C.3     
  11 C11           -3.4311    -0.9115    -2.6231 C.3     
  12 C12           -2.2876    -1.3068    -3.5597 C.3     
  13 C13           -2.7374    -1.1397    -5.0125 C.3     
  14 O14           -1.6964    -1.6258    -5.9004 O.3     
  15 O15           -1.1572    -0.4686    -3.3115 O.3     
  16 C16           -4.7206     0.4798    -0.4202 C.3     
  17 O17           -5.7647     0.7359     0.5211 O.3     
  18 O18           -3.3943    -2.5475     1.3703 O.3     
  19 C19           -1.9355    -1.5497    -7.2190 C.2     
  20 O20           -2.9801    -1.0920    -7.6181 O.2     
  21 C21           -0.9012    -2.0351    -8.2016 C.3     
  22 N22           -1.1553    -1.4332    -9.5174 N.3     
  23 C23           -0.9800    -3.5589    -8.3140 C.3     
  24 C24            0.1325    -4.0553    -9.2011 C.ar    
  25 C25            1.3563    -4.3902    -8.6515 C.ar    
  26 C26           -0.0740    -4.1807   -10.5625 C.ar    
  27 C27            0.9440    -4.6360   -11.3778 C.ar    
  28 C28            2.1745    -4.9675   -10.8294 C.ar    
  29 C29            2.3777    -4.8455    -9.4625 C.ar    
  30 O30            3.1775    -5.4161   -11.6293 O.3     
  31 N31           -5.2328     0.6654    -1.7802 N.am    
  32 O32           -4.3317     2.6882    -1.9162 O.2     
  33 C33           -4.9817     1.8110    -2.4444 C.2     
  34 C34           -5.5086     2.0019    -3.8433 C.3     
  35 H35            0.1967     2.3154     1.0113 H       
  36 H36           -0.3060    -2.1103     0.0814 H       
  37 H37           -2.2719    -0.4559     2.5385 H       
  38 H38           -2.9404     0.7778     1.4415 H       
  39 H39           -2.6991    -2.2320    -1.0862 H       
  40 H40           -5.0254    -1.6522    -0.5105 H       
  41 H41           -4.6296    -0.9647     1.8650 H       
  42 H42           -4.3209    -1.4898    -2.8719 H       
  43 H43           -3.6444     0.1512    -2.7385 H       
  44 H44           -2.0148    -2.3469    -3.3811 H       
  45 H45           -3.6514    -1.7100    -5.1778 H       
  46 H46           -2.9252    -0.0854    -5.2157 H       
  47 H47           -1.3277     0.4730    -3.4509 H       
  48 H48           -3.8960     1.1708    -0.2451 H       
  49 H49           -6.5628     0.2093     0.3763 H       
  50 H50           -3.1091    -2.7634     2.2688 H       
  51 H51            0.0917    -1.7471    -7.8560 H       
  52 H52           -0.4379    -1.6921   -10.1780 H       
  53 H53           -2.0703    -1.6854    -9.8598 H       
  54 H54           -0.8798    -4.0020    -7.3232 H       
  55 H55           -1.9409    -3.8423    -8.7434 H       
  56 H56            1.5138    -4.2953    -7.5872 H       
  57 H57           -1.0322    -3.9227   -10.9888 H       
  58 H58            0.7821    -4.7340   -12.4410 H       
  59 H59            3.3347    -5.1030    -9.0332 H       
  60 H60            3.7445    -4.7154   -11.9795 H       
  61 H61           -5.7526    -0.0362    -2.2026 H       
  62 H62           -6.4978     2.4576    -3.7999 H       
  63 H63           -4.8334     2.6514    -4.4003 H       
  64 H64           -5.5757     1.0347    -4.3414 H       
@<TRIPOS>BOND
   1    1    2 1
   2    1   35 1
   3    2    3 1
   4    2    4 2
   5    3    5 1
   6    3    6 1
   7    3    7 1
   8    5   36 1
   9    6   10 1
  10    6   37 1
  11    6   38 1
  12    7    8 1
  13    8    9 1
  14    8   11 1
  15    8   39 1
  16    9   10 1
  17    9   16 1
  18    9   40 1
  19   10   18 1
  20   10   41 1
  21   11   12 1
  22   11   42 1
  23   11   43 1
  24   12   13 1
  25   12   15 1
  26   12   44 1
  27   13   14 1
  28   13   45 1
  29   13   46 1
  30   14   19 1
  31   15   47 1
  32   16   17 1
  33   16   31 1
  34   16   48 1
  35   17   49 1
  36   18   50 1
  37   19   20 2
  38   19   21 1
  39   21   22 1
  40   21   23 1
  41   21   51 1
  42   22   52 1
  43   22   53 1
  44   23   24 1
  45   23   54 1
  46   23   55 1
  47   24   25 ar
  48   24   26 ar
  49   25   29 ar
  50   25   56 1
  51   26   27 ar
  52   26   57 1
  53   27   28 ar
  54   27   58 1
  55   28   29 ar
  56   28   30 1
  57   29   59 1
  58   30   60 1
  59   31   33 am
  60   31   61 1
  61   32   33 2
  62   33   34 1
  63   34   62 1
  64   34   63 1
  65   34   64 1

#	End of record

