#	Name: ASD03091942
#	Creating user name:	WinNT
#	Creation time:	15. 06. 2019 20:31

#	Modifying user name:	WinNT
#	Modification time:	15. 06. 2019 20:31

#	Program:	/corina/corina34_cracker 3.40 0067  02.08.2006

@<TRIPOS>MOLECULE
ASD03091942
  60   64    0    0    0
SMALL
NO_CHARGES


@<TRIPOS>ATOM
   1 C1            -0.0150     1.4030     0.0122 C.ar    
   2 C2            -1.2279     2.0727     0.0343 C.ar    
   3 C3            -2.4095     1.3526     0.0344 C.ar    
   4 C4            -2.3909    -0.0327     0.0125 C.ar    
   5 C5            -1.1912    -0.7141    -0.0096 C.ar    
   6 C6             0.0034     0.0001    -0.0096 C.ar    
   7 O7             1.1657     2.0697     0.0167 O.3     
   8 C8             2.2614     1.4539     0.6938 C.3     
   9 N9             2.4083     0.0563     0.2863 N.am    
  10 C10            1.3155    -0.6785    -0.0267 C.2     
  11 C11           -3.6883    -0.7995     0.0133 C.3     
  12 C12           -4.1977    -0.9263    -1.3994 C.ar    
  13 C13           -5.0326     0.0394    -1.9293 C.ar    
  14 C14           -3.8282    -2.0110    -2.1826 C.ar    
  15 C15           -4.3178    -2.0902    -3.4745 C.ar    
  16 C16           -5.1603    -1.0836    -3.9421 C.ar    
  17 N17           -5.4848    -0.0601    -3.1631 N.ar    
  18 O18            1.4104    -1.8567    -0.3116 O.2     
  19 C19            3.7407    -0.5489     0.2168 C.3     
  20 C20            4.5953     0.1751    -0.8440 C.3     
  21 C21            4.4691    -0.3755     1.5612 C.3     
  22 C22            5.7408     0.4477     1.2704 C.3     
  23 C23            5.4066     1.2156    -0.0326 C.3     
  24 O24            4.8241    -1.6531     2.0938 O.3     
  25 C25           -5.6935    -1.1538    -5.3246 C.2     
  26 C26           -6.5463    -0.2118    -5.9330 C.2     
  27 C27           -6.8022    -0.6358    -7.1895 C.2     
  28 N28           -6.1427    -1.7989    -7.3797 N.pl3   
  29 N29           -5.4490    -2.1046    -6.2019 N.2     
  30 F30           -1.2568     3.4232     0.0560 F       
  31 C31           -3.7282     2.0815     0.0591 C.3     
  32 C32           -6.1479    -2.5994    -8.6067 C.3     
  33 C33           -4.7084    -2.8329    -9.0694 C.3     
  34 H34           -1.1792    -1.7939    -0.0263 H       
  35 H35            3.1780     1.9943     0.4575 H       
  36 H36            2.0880     1.4972     1.7691 H       
  37 H37           -3.5229    -1.7928     0.4304 H       
  38 H38           -4.4235    -0.2690     0.6184 H       
  39 H39           -5.3187     0.8868    -1.3238 H       
  40 H40           -3.1731    -2.7760    -1.7926 H       
  41 H41           -4.0504    -2.9204    -4.1115 H       
  42 H42            3.6573    -1.6076    -0.0288 H       
  43 H43            5.2645    -0.5282    -1.3396 H       
  44 H44            3.9565     0.6737    -1.5730 H       
  45 H45            3.8312     0.1588     2.2652 H       
  46 H46            5.9381     1.1454     2.0843 H       
  47 H47            6.5951    -0.2115     1.1162 H       
  48 H48            6.3180     1.4929    -0.5622 H       
  49 H49            4.8005     2.0957     0.1823 H       
  50 H50            5.2869    -1.6109     2.9418 H       
  51 H51           -6.9279     0.6891    -5.4757 H       
  52 H52           -7.4250    -0.1331    -7.9147 H       
  53 H53           -4.0563     2.2737    -0.9625 H       
  54 H54           -4.4718     1.4702     0.5705 H       
  55 H55           -3.6105     3.0279     0.5870 H       
  56 H56           -6.6274    -3.5588    -8.4125 H       
  57 H57           -6.6979    -2.0691    -9.3841 H       
  58 H58           -4.7123    -3.4285    -9.9823 H       
  59 H59           -4.2290    -1.8735    -9.2635 H       
  60 H60           -4.1584    -3.3632    -8.2919 H       
@<TRIPOS>BOND
   1    1    6 ar
   2    1    7 1
   3    1    2 ar
   4    2    3 ar
   5    2   30 1
   6    3    4 ar
   7    3   31 1
   8    4    5 ar
   9    4   11 1
  10    5    6 ar
  11    5   34 1
  12    6   10 1
  13    7    8 1
  14    8    9 1
  15    8   35 1
  16    8   36 1
  17    9   10 am
  18    9   19 1
  19   10   18 2
  20   11   12 1
  21   11   37 1
  22   11   38 1
  23   12   14 ar
  24   12   13 ar
  25   13   17 ar
  26   13   39 1
  27   14   15 ar
  28   14   40 1
  29   15   16 ar
  30   15   41 1
  31   16   17 ar
  32   16   25 1
  33   19   21 1
  34   19   20 1
  35   19   42 1
  36   20   23 1
  37   20   43 1
  38   20   44 1
  39   21   22 1
  40   21   24 1
  41   21   45 1
  42   22   23 1
  43   22   46 1
  44   22   47 1
  45   23   48 1
  46   23   49 1
  47   24   50 1
  48   25   29 2
  49   25   26 1
  50   26   27 2
  51   26   51 1
  52   27   28 1
  53   27   52 1
  54   28   29 1
  55   28   32 1
  56   31   53 1
  57   31   54 1
  58   31   55 1
  59   32   33 1
  60   32   56 1
  61   32   57 1
  62   33   58 1
  63   33   59 1
  64   33   60 1

#	End of record

