#	Name: ASD01150687
#	Creating user name:	WinNT
#	Creation time:	15. 06. 2019 19:04

#	Modifying user name:	WinNT
#	Modification time:	15. 06. 2019 19:04

#	Program:	/corina/corina34_cracker 3.40 0067  02.08.2006

@<TRIPOS>MOLECULE
ASD01150687
  38   40    0    0    0
SMALL
NO_CHARGES


@<TRIPOS>ATOM
   1 C1            -0.0234     1.5066     0.0076 C.2     
   2 C2            -0.6745     1.3645     1.3592 C.3     
   3 C3             3.6856     3.4874    -0.3561 C.ar    
   4 C4             2.5259     4.2703    -0.3930 C.ar    
   5 C5             1.2684     3.6239    -0.2726 C.ar    
   6 C6             1.2485     2.2242    -0.1216 C.ar    
   7 C7             2.4650     1.5280    -0.0963 C.ar    
   8 N8             3.6053     2.1604    -0.2104 N.ar    
   9 C9             2.8262     5.6811    -0.5566 C.2     
  10 C10            4.1103     5.9681    -0.6396 C.2     
  11 S11            5.0986     4.5258    -0.5171 S.3     
  12 C12            0.0105     4.4008    -0.3044 C.ar    
  13 C13           -0.8975     4.2222    -1.3495 C.ar    
  14 C14           -2.0693     4.9498    -1.3729 C.ar    
  15 C15           -2.3452     5.8554    -0.3638 C.ar    
  16 C16           -1.4492     6.0376     0.6747 C.ar    
  17 C17           -0.2767     5.3118     0.7135 C.ar    
  18 C18            2.4599     0.0296     0.0648 C.3     
  19 C19            1.7526     6.7363    -0.6267 C.3     
  20 C20            4.6592     7.3610    -0.8122 C.3     
  21 F21           -0.8784     0.0089     1.6384 F       
  22 F22            0.1554     1.9223     2.3376 F       
  23 F23           -1.9049     2.0303     1.3565 F       
  24 O24           -0.5494     1.0230    -0.9729 O.2     
  25 H25           -0.6830     3.5161    -2.1381 H       
  26 H26           -2.7727     4.8125    -2.1808 H       
  27 H27           -3.2639     6.4228    -0.3870 H       
  28 H28           -1.6704     6.7463     1.4591 H       
  29 H29            0.4198     5.4517     1.5269 H       
  30 H30            2.3268    -0.4401    -0.9098 H       
  31 H31            3.4072    -0.2926     0.4971 H       
  32 H32            1.6419    -0.2622     0.7235 H       
  33 H33            1.5349     7.1004     0.3773 H       
  34 H34            2.0968     7.5642    -1.2467 H       
  35 H35            0.8497     6.3077    -1.0616 H       
  36 H36            4.8328     7.8070     0.1671 H       
  37 H37            5.5989     7.3156    -1.3626 H       
  38 H38            3.9428     7.9678    -1.3659 H       
@<TRIPOS>BOND
   1    1    2 1
   2    1    6 1
   3    1   24 2
   4    2   21 1
   5    2   22 1
   6    2   23 1
   7    3    4 ar
   8    3    8 ar
   9    3   11 1
  10    4    5 ar
  11    4    9 1
  12    5    6 ar
  13    5   12 1
  14    6    7 ar
  15    7    8 ar
  16    7   18 1
  17    9   10 2
  18    9   19 1
  19   10   11 1
  20   10   20 1
  21   12   13 ar
  22   12   17 ar
  23   13   14 ar
  24   13   25 1
  25   14   15 ar
  26   14   26 1
  27   15   16 ar
  28   15   27 1
  29   16   17 ar
  30   16   28 1
  31   17   29 1
  32   18   30 1
  33   18   31 1
  34   18   32 1
  35   19   33 1
  36   19   34 1
  37   19   35 1
  38   20   36 1
  39   20   37 1
  40   20   38 1

#	End of record

