#	Name: ASD01310048
#	Creating user name:	WinNT
#	Creation time:	15. 06. 2019 19:15

#	Modifying user name:	WinNT
#	Modification time:	15. 06. 2019 19:15

#	Program:	/corina/corina34_cracker 3.40 0067  02.08.2006

@<TRIPOS>MOLECULE
ASD01310048
  44   48    0    0    0
SMALL
NO_CHARGES


@<TRIPOS>ATOM
   1 C1            -0.0182     1.4919     0.0102 C.3     
   2 C2             0.0021    -0.0041     0.0020 C.ar    
   3 C3             0.0473    -0.7251    -1.1837 C.ar    
   4 C4            -0.1935     1.2571    -2.4774 C.2     
   5 C5            -0.0224    -0.6939     1.2046 C.ar    
   6 C6             0.0092    -2.0805     1.1784 C.ar    
   7 C7             0.0653    -2.7316    -0.0379 C.ar    
   8 N8             0.0828    -2.0502    -1.1664 N.ar    
   9 N9             1.2883     3.4073    -0.5765 N.am    
  10 C10            1.4189     2.0556    -0.0004 C.3     
  11 C11           -0.6126     2.0708    -1.2869 C.3     
  12 C12            0.0636     3.4579    -1.3885 C.3     
  13 N13            0.0514    -0.0560    -2.4046 N.am    
  14 O14           -0.0720     1.8131    -3.5483 O.2     
  15 S15            2.3459     4.6607    -0.3463 S.o2    
  16 O16            1.6104     5.8541    -0.5787 O.2     
  17 O17            3.0272     4.3922     0.8715 O.2     
  18 C18            3.5549     4.5644    -1.6245 C.ar    
  19 C19            4.7047     3.8213    -1.4318 C.ar    
  20 C20            3.3490     5.2274    -2.8199 C.ar    
  21 C21            5.4590     4.4091    -3.6302 C.ar    
  22 C22            5.6560     3.7426    -2.4316 C.ar    
  23 C23            4.2980     5.1527    -3.8265 C.ar    
  24 O24            4.3373     5.7012    -5.0759 O.3     
  25 C25            5.7148     5.6218    -5.4874 C.3     
  26 O26            6.2254     4.4910    -4.7568 O.3     
  27 H27           -0.5612     1.8569     0.8820 H       
  28 H28           -1.6980     2.1483    -1.2248 H       
  29 C29            0.3293    -0.8043    -3.6331 C.3     
  30 H30           -0.0650    -0.1620     2.1435 H       
  31 H31           -0.0096    -2.6445     2.0993 H       
  32 H32            0.0952    -3.8108    -0.0651 H       
  33 H33            1.8120     2.1119     1.0146 H       
  34 H34            2.0643     1.4377    -0.6247 H       
  35 H35           -0.6062     4.2260    -1.0016 H       
  36 H36            0.3159     3.6721    -2.4270 H       
  37 H37            4.8601     3.3015    -0.4980 H       
  38 H38            2.4478     5.8036    -2.9693 H       
  39 H39            6.5535     3.1617    -2.2782 H       
  40 H40            5.7843     5.4471    -6.5611 H       
  41 H41            6.2502     6.5300    -5.2107 H       
  42 H42            0.5044    -1.8520    -3.3886 H       
  43 H43           -0.5239    -0.7261    -4.3069 H       
  44 H44            1.2141    -0.3915    -4.1177 H       
@<TRIPOS>BOND
   1    1    2 1
   2    1   10 1
   3    1   11 1
   4    1   27 1
   5    2    3 ar
   6    2    5 ar
   7    3   13 1
   8    3    8 ar
   9    4   11 1
  10    4   14 2
  11    4   13 am
  12    5    6 ar
  13    5   30 1
  14    6    7 ar
  15    6   31 1
  16    7    8 ar
  17    7   32 1
  18    9   10 1
  19    9   12 1
  20    9   15 am
  21   10   33 1
  22   10   34 1
  23   11   12 1
  24   11   28 1
  25   12   35 1
  26   12   36 1
  27   13   29 1
  28   15   16 2
  29   15   17 2
  30   15   18 1
  31   18   20 ar
  32   18   19 ar
  33   19   22 ar
  34   19   37 1
  35   20   23 ar
  36   20   38 1
  37   21   22 ar
  38   21   26 1
  39   21   23 ar
  40   22   39 1
  41   23   24 1
  42   24   25 1
  43   25   26 1
  44   25   40 1
  45   25   41 1
  46   29   42 1
  47   29   43 1
  48   29   44 1

#	End of record

