#	Name: ASD01911997
#	Creating user name:	WinNT
#	Creation time:	15. 06. 2019 19:58

#	Modifying user name:	WinNT
#	Modification time:	15. 06. 2019 19:58

#	Program:	/corina/corina34_cracker 3.40 0067  02.08.2006

@<TRIPOS>MOLECULE
ASD01911997
  38   40    0    0    0
SMALL
NO_CHARGES


@<TRIPOS>ATOM
   1 C1            -1.4287     1.2134     1.7171 C.ar    
   2 C2            -1.3523    -0.1698     1.5715 C.ar    
   3 C3            -1.5145    -0.9620     2.7056 C.ar    
   4 N4            -1.7338    -0.3764     3.8710 N.ar    
   5 C5            -1.7992     0.9364     3.9671 C.ar    
   6 N6            -1.6510     1.7205     2.9181 N.ar    
   7 N7            -1.1193    -0.7475     0.3203 N.pl3   
   8 C8            -1.0194    -2.1358     0.1996 C.ar    
   9 C9             0.3002    -4.0930    -0.2384 C.ar    
  10 C10           -0.8122    -4.8891    -0.0428 C.ar    
  11 C11           -2.0361    -4.3107     0.2702 C.ar    
  12 C12           -2.1396    -2.9321     0.3915 C.ar    
  13 N13           -3.1612    -5.1171     0.4674 N.am    
  14 C14           -4.3821    -4.6685     0.1144 C.2     
  15 C15           -5.5848    -5.4784     0.4169 C.ar    
  16 O16           -4.4962    -3.5994    -0.4522 O.2     
  17 C17           -6.8429    -5.0091     0.0495 C.ar    
  18 C18            0.2009    -2.7206    -0.1185 C.ar    
  19 C19           -0.9798     0.1027    -0.8646 C.3     
  20 C20           -7.9607    -5.7777     0.3384 C.ar    
  21 C21           -7.7813    -6.9890     0.9847 C.ar    
  22 C22           -6.4968    -7.3965     1.3226 C.ar    
  23 N23           -5.4529    -6.6485     1.0314 N.ar    
  24 F24           -6.3160    -8.5774     1.9533 F       
  25 H25           -1.3039     1.8621     0.8627 H       
  26 H26           -1.4625    -2.0384     2.6343 H       
  27 H27           -1.9799     1.3828     4.9338 H       
  28 H28            1.2505    -4.5453    -0.4812 H       
  29 H29           -0.7311    -5.9619    -0.1374 H       
  30 H30           -3.0897    -2.4801     0.6350 H       
  31 H31           -3.0631    -5.9994     0.8583 H       
  32 H32           -6.9471    -4.0591    -0.4534 H       
  33 H33            1.0721    -2.1012    -0.2723 H       
  34 H34            0.0679     0.3724    -0.9970 H       
  35 H35           -1.3295    -0.4389    -1.7436 H       
  36 H36           -1.5742     1.0071    -0.7348 H       
  37 H37           -8.9492    -5.4387     0.0655 H       
  38 H38           -8.6314    -7.6107     1.2241 H       
@<TRIPOS>BOND
   1    1    2 ar
   2    1    6 ar
   3    1   25 1
   4    2    3 ar
   5    2    7 1
   6    3    4 ar
   7    3   26 1
   8    4    5 ar
   9    5    6 ar
  10    5   27 1
  11    7    8 1
  12    7   19 1
  13    8   18 ar
  14    8   12 ar
  15    9   10 ar
  16    9   18 ar
  17    9   28 1
  18   10   11 ar
  19   10   29 1
  20   11   12 ar
  21   11   13 1
  22   12   30 1
  23   13   14 am
  24   13   31 1
  25   14   15 1
  26   14   16 2
  27   15   17 ar
  28   15   23 ar
  29   17   20 ar
  30   17   32 1
  31   18   33 1
  32   19   34 1
  33   19   35 1
  34   19   36 1
  35   20   21 ar
  36   20   37 1
  37   21   22 ar
  38   21   38 1
  39   22   23 ar
  40   22   24 1

#	End of record

