#	Name: ASD01810457
#	Creating user name:	WinNT
#	Creation time:	15. 06. 2019 19:24

#	Modifying user name:	WinNT
#	Modification time:	15. 06. 2019 19:24

#	Program:	/corina/corina34_cracker 3.40 0067  02.08.2006

@<TRIPOS>MOLECULE
ASD01810457
  39   42    0    0    0
SMALL
NO_CHARGES


@<TRIPOS>ATOM
   1 C1            -0.0170     1.4046     0.0098 C.ar    
   2 C2             0.0021    -0.0041     0.0020 C.ar    
   3 N3             1.1701     2.0965     0.0021 N.pl3   
   4 N4             2.3162     1.5270    -0.0119 N.2     
   5 C5             2.4948     0.2246    -0.0206 C.2     
   6 C6             1.3183    -0.6660    -0.0141 C.2     
   7 O7             1.4290    -1.8796    -0.0213 O.2     
   8 C8             3.8553    -0.3398    -0.0371 C.2     
   9 C9             1.1213     3.5607     0.0100 C.3     
  10 C10            1.1179     4.0556     1.4334 C.ar    
  11 O11            4.0132    -1.5447    -0.0451 O.2     
  12 O12            4.9250     0.4801    -0.0434 O.3     
  13 C13            2.3282     4.3213     2.0704 C.ar    
  14 C14            2.3604     4.7690     3.3556 C.ar    
  15 C15            1.1569     4.9674     4.0529 C.ar    
  16 C16           -0.0745     4.6976     3.4046 C.ar    
  17 C17           -0.0678     4.2416     2.0757 C.ar    
  18 C18            1.1499     5.4279     5.3808 C.ar    
  19 C19           -0.0353     5.6081     6.0247 C.ar    
  20 C20           -1.1915    -0.7258     0.0100 C.ar    
  21 C21           -2.3935    -0.0458     0.0255 C.ar    
  22 C22           -2.4133     1.3414     0.0331 C.ar    
  23 C23           -1.2411     2.0660     0.0308 C.ar    
  24 F24           -1.1720    -2.0767     0.0021 F       
  25 C25           -1.2461     5.3428     5.3873 C.ar    
  26 C26           -1.2783     4.8958     4.1023 C.ar    
  27 H27            1.9939     3.9561    -0.5101 H       
  28 H28            0.2150     3.8968    -0.4937 H       
  29 H29            5.7975     0.0633    -0.0543 H       
  30 H30            3.2548     4.1696     1.5367 H       
  31 H31            3.3061     4.9701     3.8368 H       
  32 H32           -0.9983     4.0319     1.5691 H       
  33 H33            2.0804     5.6373     5.8876 H       
  34 H34           -0.0378     5.9617     7.0452 H       
  35 H35           -3.3225    -0.5966     0.0314 H       
  36 H36           -3.3603     1.8604     0.0449 H       
  37 H37           -1.2725     3.1455     0.0371 H       
  38 H38           -2.1726     5.4943     5.9211 H       
  39 H39           -2.2241     4.6947     3.6211 H       
@<TRIPOS>BOND
   1    1    2 ar
   2    1    3 1
   3    1   23 ar
   4    2   20 ar
   5    2    6 1
   6    3    4 1
   7    3    9 1
   8    4    5 2
   9    5    6 1
  10    5    8 1
  11    6    7 2
  12    8   11 2
  13    8   12 1
  14    9   10 1
  15    9   27 1
  16    9   28 1
  17   10   13 ar
  18   10   17 ar
  19   12   29 1
  20   13   14 ar
  21   13   30 1
  22   14   15 ar
  23   14   31 1
  24   15   16 ar
  25   15   18 ar
  26   16   17 ar
  27   16   26 ar
  28   17   32 1
  29   18   19 ar
  30   18   33 1
  31   19   25 ar
  32   19   34 1
  33   20   21 ar
  34   20   24 1
  35   21   22 ar
  36   21   35 1
  37   22   23 ar
  38   22   36 1
  39   23   37 1
  40   25   26 ar
  41   25   38 1
  42   26   39 1

#	End of record

