#	Name: ASD09740665
#	Creating user name:	WinNT
#	Creation time:	15. 06. 2019 21:23

#	Modifying user name:	WinNT
#	Modification time:	15. 06. 2019 21:23

#	Program:	/corina/corina34_cracker 3.40 0067  02.08.2006

@<TRIPOS>MOLECULE
ASD09740665
  35   36    0    0    0
SMALL
NO_CHARGES


@<TRIPOS>ATOM
   1 C1            -0.0187     1.5258     0.0104 C.3     
   2 C2             0.0021    -0.0041     0.0020 C.3     
   3 C3             0.7421    -0.5109     1.2415 C.3     
   4 S4            -1.6997    -0.6320     0.0149 S.o     
   5 O5            -1.6913    -2.0286    -0.2471 O.2     
   6 N6            -2.3418     0.0035    -1.3730 N.am    
   7 C7             0.7182    -0.4975    -1.2568 C.3     
   8 C8            -3.7338    -0.2785    -1.7322 C.3     
   9 C9            -4.3679     0.9480    -2.4221 C.3     
  10 C10           -4.1114     0.6570    -3.9160 C.3     
  11 C11           -4.0135    -0.8503    -4.0148 C.ar    
  12 C12           -4.1066    -1.6860    -5.1165 C.ar    
  13 C13           -3.9835    -3.0539    -4.9635 C.ar    
  14 C14           -3.7665    -3.5907    -3.7082 C.ar    
  15 C15           -3.6731    -2.7591    -2.6096 C.ar    
  16 C16           -3.7966    -1.3878    -2.7603 C.ar    
  17 Br17          -4.4035    -0.9524    -6.8339 Br      
  18 H18            1.0039     1.9031     0.0027 H       
  19 H19           -0.5459     1.8868    -0.8726 H       
  20 H20           -0.5289     1.8773     0.9072 H       
  21 H21            0.2319    -0.1594     2.1383 H       
  22 H22            0.7568    -1.6008     1.2356 H       
  23 H23            1.7647    -0.1336     1.2338 H       
  24 H24           -1.7962     0.5625    -1.9482 H       
  25 H25            1.7408    -0.1202    -1.2645 H       
  26 H26            0.7330    -1.5874    -1.2628 H       
  27 H27            0.1910    -0.1364    -2.1398 H       
  28 H28           -4.3061    -0.5517    -0.8457 H       
  29 H29           -5.4369     0.9992    -2.2153 H       
  30 H30           -3.8682     1.8667    -2.1150 H       
  31 H31           -4.9415     1.0225    -4.5205 H       
  32 H32           -3.1773     1.1185    -4.2363 H       
  33 H33           -4.0571    -3.7029    -5.8236 H       
  34 H34           -3.6703    -4.6595    -3.5867 H       
  35 H35           -3.5039    -3.1796    -1.6293 H       
@<TRIPOS>BOND
   1    1    2 1
   2    1   18 1
   3    1   19 1
   4    1   20 1
   5    2    3 1
   6    2    4 1
   7    2    7 1
   8    3   21 1
   9    3   22 1
  10    3   23 1
  11    4    5 2
  12    4    6 am
  13    6    8 1
  14    6   24 1
  15    7   25 1
  16    7   26 1
  17    7   27 1
  18    8    9 1
  19    8   16 1
  20    8   28 1
  21    9   10 1
  22    9   29 1
  23    9   30 1
  24   10   11 1
  25   10   31 1
  26   10   32 1
  27   11   12 ar
  28   11   16 ar
  29   12   13 ar
  30   12   17 1
  31   13   14 ar
  32   13   33 1
  33   14   15 ar
  34   14   34 1
  35   15   16 ar
  36   15   35 1

#	End of record

