#	Name: ASD05872005
#	Creating user name:	WinNT
#	Creation time:	15. 06. 2019 21:04

#	Modifying user name:	WinNT
#	Modification time:	15. 06. 2019 21:04

#	Program:	/corina/corina34_cracker 3.40 0067  02.08.2006

@<TRIPOS>MOLECULE
ASD05872005
  71   74    0    0    0
SMALL
NO_CHARGES


@<TRIPOS>ATOM
   1 C1            -0.0168     1.3909     0.0097 C.ar    
   2 C2             0.0021    -0.0041     0.0020 C.ar    
   3 C3            -1.1845    -0.7121     0.0095 C.ar    
   4 C4            -2.3952    -0.0265     0.0253 C.ar    
   5 C5            -2.4170     1.3754     0.0335 C.ar    
   6 C6            -1.2170     2.0760     0.0306 C.ar    
   7 C7            -3.8128    -0.4423     0.0375 C.2     
   8 C8            -4.5353     0.7114     0.0515 C.2     
   9 O9            -3.7097     1.7642     0.0490 O.3     
  10 C10           -6.0401     0.7908     0.0675 C.3     
  11 O11           -6.5019     0.8082     1.4197 O.3     
  12 C12           -7.8468     0.8783     1.6122 C.ar    
  13 C13           -8.6979     0.9289     0.5254 C.ar    
  14 C14          -10.0728     1.0005     0.7301 C.ar    
  15 C15          -10.5965     1.0214     2.0301 C.ar    
  16 C16           -9.7297     0.9705     3.1155 C.ar    
  17 C17           -8.3659     0.8933     2.9076 C.ar    
  18 C18          -11.2443     1.0665    -0.1675 C.2     
  19 C19          -12.3320     1.1195     0.6494 C.2     
  20 O20          -11.9407     1.0926     1.9286 O.3     
  21 C21          -13.7628     1.1978     0.1827 C.3     
  22 C22           -4.3345    -1.8156     0.0343 C.2     
  23 O23           -4.5393    -2.3905     1.0858 O.2     
  24 O24           -4.5861    -2.4385    -1.1346 O.3     
  25 C25           -5.3226    -4.3322    -2.4767 C.3     
  26 C26           -5.1002    -3.7944    -1.0617 C.3     
  27 O27            1.1546     2.0818     0.0022 O.3     
  28 C28            2.4750     4.1060     0.0005 C.3     
  29 C29            1.0667     3.5081     0.0107 C.3     
  30 C30          -11.2370     1.0742    -1.6365 C.2     
  31 O31          -11.2888     0.0260    -2.2502 O.2     
  32 O32          -11.1728     2.2437    -2.3042 O.3     
  33 C33          -11.0930     3.5904    -4.3316 C.3     
  34 C34          -11.1695     2.1755    -3.7546 C.3     
  35 O35            1.1896    -0.6677    -0.0133 O.3     
  36 S36            1.7437    -0.9771     1.3700 S.o2    
  37 O37            3.1397    -1.3444     1.1901 O.co2   
  38 O38            1.5955     0.2341     2.1618 O.co2   
  39 O39            0.9541    -2.0770     1.9018 O.co2   
  40 O40           -7.5224     0.8437     3.9733 O.3     
  41 C41           -7.0187     0.8113     6.3367 C.3     
  42 C42           -8.1162     0.8753     5.2727 C.3     
  43 H43           -1.1723    -1.7920     0.0029 H       
  44 H44           -1.2222     3.1560     0.0368 H       
  45 H45           -6.3613     1.7016    -0.4379 H       
  46 H46           -6.4552    -0.0759    -0.4470 H       
  47 H47           -8.2986     0.9133    -0.4780 H       
  48 H48          -10.1225     0.9860     4.1215 H       
  49 H49          -14.1620     0.1904     0.0645 H       
  50 H50          -14.3561     1.7397     0.9192 H       
  51 H51          -13.8051     1.7199    -0.7732 H       
  52 H52           -5.7085    -5.3502    -2.4220 H       
  53 H53           -6.0408    -3.6989    -2.9974 H       
  54 H54           -4.3770    -4.3308    -3.0188 H       
  55 H55           -4.3819    -4.4278    -0.5411 H       
  56 H56           -6.0458    -3.7959    -0.5197 H       
  57 H57            3.0017     3.7798    -0.8963 H       
  58 H58            2.4079     5.1939     0.0070 H       
  59 H59            3.0187     3.7702     0.8835 H       
  60 H60            0.5230     3.8439    -0.8723 H       
  61 H61            0.5400     3.8343     0.9075 H       
  62 H62          -11.9557     4.1665    -3.9969 H       
  63 H63          -10.1782     4.0737    -3.9885 H       
  64 H64          -11.0905     3.5392    -5.4203 H       
  65 H65          -10.3068     1.5995    -4.0892 H       
  66 H66          -12.0843     1.6922    -4.0976 H       
  67 H67           -7.4716     0.8354     7.3278 H       
  68 H68           -6.4517    -0.1122     6.2187 H       
  69 H69           -6.3508     1.6649     6.2216 H       
  70 H70           -8.6832     1.7988     5.3907 H       
  71 H71           -8.7842     0.0217     5.3878 H       
@<TRIPOS>BOND
   1    1    2 ar
   2    1   27 1
   3    1    6 ar
   4    2    3 ar
   5    2   35 1
   6    3    4 ar
   7    3   43 1
   8    4    5 ar
   9    4    7 1
  10    5    6 ar
  11    5    9 1
  12    6   44 1
  13    7    8 2
  14    7   22 1
  15    8    9 1
  16    8   10 1
  17   10   11 1
  18   10   45 1
  19   10   46 1
  20   11   12 1
  21   12   13 ar
  22   12   17 ar
  23   13   14 ar
  24   13   47 1
  25   14   15 ar
  26   14   18 1
  27   15   16 ar
  28   15   20 1
  29   16   17 ar
  30   16   48 1
  31   17   40 1
  32   18   19 2
  33   18   30 1
  34   19   20 1
  35   19   21 1
  36   21   49 1
  37   21   50 1
  38   21   51 1
  39   22   23 2
  40   22   24 1
  41   24   26 1
  42   25   26 1
  43   25   52 1
  44   25   53 1
  45   25   54 1
  46   26   55 1
  47   26   56 1
  48   27   29 1
  49   28   29 1
  50   28   57 1
  51   28   58 1
  52   28   59 1
  53   29   60 1
  54   29   61 1
  55   30   31 2
  56   30   32 1
  57   32   34 1
  58   33   34 1
  59   33   62 1
  60   33   63 1
  61   33   64 1
  62   34   65 1
  63   34   66 1
  64   35   36 1
  65   36   37 ar
  66   36   38 ar
  67   36   39 ar
  68   40   42 1
  69   41   42 1
  70   41   67 1
  71   41   68 1
  72   41   69 1
  73   42   70 1
  74   42   71 1

#	End of record

