#	Name: ASD01410503
#	Creating user name:	WinNT
#	Creation time:	15. 06. 2019 19:17

#	Modifying user name:	WinNT
#	Modification time:	15. 06. 2019 19:17

#	Program:	/corina/corina34_cracker 3.40 0067  02.08.2006

@<TRIPOS>MOLECULE
ASD01410503
  71   74    0    0    0
SMALL
NO_CHARGES


@<TRIPOS>ATOM
   1 C1             3.4759     6.0182    -2.4862 C.ar    
   2 C2             4.1982     5.6563    -3.6147 C.ar    
   3 C3             5.0992     4.6128    -3.5343 C.ar    
   4 N4             5.2790     3.9603    -2.4019 N.ar    
   5 C5             4.6094     4.2756    -1.3053 C.ar    
   6 C6             3.6871     5.3142    -1.3133 C.ar    
   7 O7             4.8253     3.5776    -0.1622 O.3     
   8 C8             5.6580     2.5036    -0.2175 C.ar    
   9 C9             7.0363     2.6894    -0.1455 C.ar    
  10 C10            7.8908     1.6040    -0.2004 C.ar    
  11 C11            7.3788     0.3209    -0.3277 C.ar    
  12 C12            5.9901     0.1281    -0.4006 C.ar    
  13 C13            5.1337     1.2315    -0.3390 C.ar    
  14 F14            7.5409     3.9366    -0.0220 F       
  15 N15            8.2400    -0.7727    -0.3834 N.am    
  16 C16            8.6945    -1.3313     0.7558 C.2     
  17 C17            8.6516    -1.3156    -1.6804 C.3     
  18 O18            9.3934    -2.3250     0.7089 O.2     
  19 C19            8.3438    -0.7365     2.0605 C.ar    
  20 C20            7.1191    -0.0865     2.2288 C.ar    
  21 C21            6.7974     0.4670     3.4496 C.ar    
  22 C22            7.6850     0.3808     4.5097 C.ar    
  23 C23            8.9006    -0.2612     4.3526 C.ar    
  24 C24            9.2342    -0.8263     3.1360 C.ar    
  25 C25            4.0011     6.3938    -4.9140 C.3     
  26 C26            4.9754     7.5714    -4.9849 C.3     
  27 C27            8.0123    -0.4954    -2.8027 C.3     
  28 C28           10.1751    -1.2460    -1.8021 C.3     
  29 Br29           7.2334     1.1448     6.1795 Br      
  30 O30           10.7672    -2.2133    -0.9326 O.3     
  31 C31            5.9202    -0.0725    -3.8933 C.3     
  32 O32            6.6157    -0.7901    -2.8718 O.3     
  33 N33            3.9689     9.2691    -6.4150 N.2     
  34 N34            4.7838     8.2884    -6.2480 N.pl3   
  35 C35            4.0482     9.6756    -7.6618 C.2     
  36 C36            4.9977     8.8532    -8.2727 C.2     
  37 N37            5.4076     8.0228    -7.3408 N.2     
  38 C38           12.1956    -2.2313    -0.9700 C.3     
  39 F39           10.4209    -1.4535     2.9828 F       
  40 C40            5.4379    -1.2302    -0.5363 C.2     
  41 O41            6.1713    -2.1956    -0.4513 O.2     
  42 O42            4.1192    -1.4029    -0.7548 O.3     
  43 C43            2.9271     5.6702    -0.0616 C.3     
  44 F44            2.0671     6.7412    -0.3270 F       
  45 F45            2.1797     4.5654     0.3602 F       
  46 F46            3.8290     6.0345     0.9439 F       
  47 H47            2.7683     6.8334    -2.5213 H       
  48 H48            5.6635     4.3270    -4.4097 H       
  49 H49            8.9587     1.7552    -0.1444 H       
  50 H50            4.0644     1.0902    -0.3942 H       
  51 H51            8.3278    -2.3535    -1.7591 H       
  52 H52            6.4256    -0.0173     1.4038 H       
  53 H53            5.8504     0.9697     3.5799 H       
  54 H54            9.5880    -0.3248     5.1831 H       
  55 H55            4.1877     5.7171    -5.7479 H       
  56 H56            2.9778     6.7652    -4.9694 H       
  57 H57            4.7888     8.2481    -4.1511 H       
  58 H58            5.9987     7.2000    -4.9295 H       
  59 H59            8.1499     0.5667    -2.6002 H       
  60 H60            8.4844    -0.7485    -3.7519 H       
  61 H61           10.4674    -1.4554    -2.8311 H       
  62 H62           10.5168    -0.2493    -1.5230 H       
  63 H63            6.3489    -0.3168    -4.8652 H       
  64 H64            4.8666    -0.3518    -3.8804 H       
  65 H65            6.0144     0.9984    -3.7134 H       
  66 H66            3.4932    10.4806    -8.1204 H       
  67 H67            5.3274     8.8921    -9.3004 H       
  68 H68           12.5674    -2.9915    -0.2831 H       
  69 H69           12.5297    -2.4611    -1.9817 H       
  70 H70           12.5791    -1.2550    -0.6736 H       
  71 H71            3.8033    -2.3131    -0.8370 H       
@<TRIPOS>BOND
   1    1    2 ar
   2    1    6 ar
   3    1   47 1
   4    2    3 ar
   5    2   25 1
   6    3    4 ar
   7    3   48 1
   8    4    5 ar
   9    5    6 ar
  10    5    7 1
  11    6   43 1
  12    7    8 1
  13    8    9 ar
  14    8   13 ar
  15    9   10 ar
  16    9   14 1
  17   10   11 ar
  18   10   49 1
  19   11   12 ar
  20   11   15 1
  21   12   13 ar
  22   12   40 1
  23   13   50 1
  24   15   16 am
  25   15   17 1
  26   16   18 2
  27   16   19 1
  28   17   28 1
  29   17   27 1
  30   17   51 1
  31   19   20 ar
  32   19   24 ar
  33   20   21 ar
  34   20   52 1
  35   21   22 ar
  36   21   53 1
  37   22   23 ar
  38   22   29 1
  39   23   24 ar
  40   23   54 1
  41   24   39 1
  42   25   26 1
  43   25   55 1
  44   25   56 1
  45   26   34 1
  46   26   57 1
  47   26   58 1
  48   27   32 1
  49   27   59 1
  50   27   60 1
  51   28   30 1
  52   28   61 1
  53   28   62 1
  54   30   38 1
  55   31   32 1
  56   31   63 1
  57   31   64 1
  58   31   65 1
  59   33   34 1
  60   33   35 2
  61   34   37 1
  62   35   36 1
  63   35   66 1
  64   36   37 2
  65   36   67 1
  66   38   68 1
  67   38   69 1
  68   38   70 1
  69   40   41 2
  70   40   42 1
  71   42   71 1
  72   43   44 1
  73   43   45 1
  74   43   46 1

#	End of record

