#	Name: ASD01800024
#	Creating user name:	WinNT
#	Creation time:	15. 06. 2019 19:23

#	Modifying user name:	WinNT
#	Modification time:	15. 06. 2019 19:23

#	Program:	/corina/corina34_cracker 3.40 0067  02.08.2006

@<TRIPOS>MOLECULE
ASD01800024
  53   56    0    0    0
SMALL
NO_CHARGES


@<TRIPOS>ATOM
   1 C1            -0.2529     0.8532     0.3096 C.ar    
   2 C2             0.0008    -0.4889     0.5751 C.ar    
   3 C3             1.2965    -0.9879     0.4580 C.ar    
   4 C4             2.3318    -0.1491     0.0777 C.ar    
   5 C5             2.0822     1.1883    -0.1875 C.ar    
   6 C6             0.7891     1.6932    -0.0722 C.ar    
   7 O7             3.5950    -0.6388    -0.0352 O.3     
   8 C8             3.8699    -1.3747    -1.1291 C.2     
   9 N9             5.0693    -1.9770    -1.2522 N.am    
  10 C10            5.3684    -2.7775    -2.4421 C.3     
  11 C11            6.8888    -2.8314    -2.6726 C.3     
  12 C12            7.2942    -4.3178    -2.5931 C.3     
  13 C13            5.9914    -5.0853    -2.9289 C.3     
  14 C14            4.9029    -4.2330    -2.2305 C.3     
  15 O15            3.0366    -1.4957    -2.0052 O.2     
  16 C16           -1.1074    -1.3878     0.9829 C.ar    
  17 C17           -0.8553    -2.7320     1.2492 C.ar    
  18 C18           -1.8896    -3.5635     1.6286 C.ar    
  19 C19           -3.1744    -3.0645     1.7447 C.ar    
  20 C20           -3.4303    -1.7309     1.4816 C.ar    
  21 C21           -2.4026    -0.8893     1.1066 C.ar    
  22 C22            0.5226     3.1252    -0.3567 C.ar    
  23 C23            1.5643     3.9676    -0.7395 C.ar    
  24 C24            1.3108     5.2984    -1.0034 C.ar    
  25 C25            0.0254     5.7962    -0.8884 C.ar    
  26 C26           -1.0125     4.9644    -0.5087 C.ar    
  27 C27           -0.7711     3.6307    -0.2476 C.ar    
  28 C28           -4.2997    -3.9773     2.1589 C.3     
  29 H29           -1.2572     1.2413     0.3954 H       
  30 H30            1.4941    -2.0294     0.6643 H       
  31 H31            2.8913     1.8397    -0.4833 H       
  32 H32            5.7345    -1.8804    -0.5528 H       
  33 H33            4.8736    -2.3494    -3.3138 H       
  34 H34            7.1318    -2.4303    -3.6565 H       
  35 H35            7.4042    -2.2620    -1.8991 H       
  36 H36            8.0688    -4.5417    -3.3265 H       
  37 H37            7.6354    -4.5669    -1.5883 H       
  38 H38            5.8271    -5.1145    -4.0061 H       
  39 H39            6.0186    -6.0927    -2.5138 H       
  40 H40            4.8579    -4.4684    -1.1672 H       
  41 H41            3.9323    -4.3950    -2.6994 H       
  42 H42            0.1474    -3.1227     1.1585 H       
  43 H43           -1.6954    -4.6056     1.8349 H       
  44 H44           -4.4353    -1.3464     1.5738 H       
  45 H45           -2.6034     0.1519     0.9017 H       
  46 H46            2.5684     3.5800    -0.8293 H       
  47 H47            2.1176     5.9523    -1.2998 H       
  48 H48           -0.1685     6.8383    -1.0954 H       
  49 H49           -2.0142     5.3582    -0.4205 H       
  50 H50           -1.5823     2.9820     0.0484 H       
  51 H51           -4.3933    -3.9691     3.2449 H       
  52 H52           -5.2315    -3.6315     1.7114 H       
  53 H53           -4.0883    -4.9915     1.8201 H       
@<TRIPOS>BOND
   1    1    2 ar
   2    1    6 ar
   3    1   29 1
   4    2    3 ar
   5    2   16 1
   6    3    4 ar
   7    3   30 1
   8    4    5 ar
   9    4    7 1
  10    5    6 ar
  11    5   31 1
  12    6   22 1
  13    7    8 1
  14    8    9 am
  15    8   15 2
  16    9   10 1
  17    9   32 1
  18   10   11 1
  19   10   14 1
  20   10   33 1
  21   11   12 1
  22   11   34 1
  23   11   35 1
  24   12   13 1
  25   12   36 1
  26   12   37 1
  27   13   14 1
  28   13   38 1
  29   13   39 1
  30   14   40 1
  31   14   41 1
  32   16   17 ar
  33   16   21 ar
  34   17   18 ar
  35   17   42 1
  36   18   19 ar
  37   18   43 1
  38   19   20 ar
  39   19   28 1
  40   20   21 ar
  41   20   44 1
  42   21   45 1
  43   22   23 ar
  44   22   27 ar
  45   23   24 ar
  46   23   46 1
  47   24   25 ar
  48   24   47 1
  49   25   26 ar
  50   25   48 1
  51   26   27 ar
  52   26   49 1
  53   27   50 1
  54   28   51 1
  55   28   52 1
  56   28   53 1

#	End of record

