#	Name: ASD01911851
#	Creating user name:	WinNT
#	Creation time:	15. 06. 2019 19:58

#	Modifying user name:	WinNT
#	Modification time:	15. 06. 2019 19:58

#	Program:	/corina/corina34_cracker 3.40 0067  02.08.2006

@<TRIPOS>MOLECULE
ASD01911851
  35   37    0    0    0
SMALL
NO_CHARGES


@<TRIPOS>ATOM
   1 C1            -1.0602    -0.5028    -2.0840 C.ar    
   2 C2            -1.0558     0.0556    -0.8093 C.ar    
   3 C3            -1.0046     1.4358    -0.6788 C.ar    
   4 N4            -0.9609     2.2111    -1.7441 N.ar    
   5 C5            -0.9636     1.7140    -2.9654 C.ar    
   6 C6            -1.0128     0.3484    -3.1758 C.ar    
   7 O7            -1.1016    -0.7396     0.2918 O.3     
   8 C8            -1.1522    -2.0846     0.1056 C.ar    
   9 C9            -0.0017    -2.7822    -0.2369 C.ar    
  10 C10           -0.0517    -4.1498    -0.4270 C.ar    
  11 C11           -1.2461    -4.8277    -0.2766 C.ar    
  12 C12           -2.4004    -4.1352     0.0664 C.ar    
  13 C13           -2.3512    -2.7620     0.2630 C.ar    
  14 N14           -3.6095    -4.8214     0.2187 N.am    
  15 C15           -4.7719    -4.2169    -0.0973 C.2     
  16 C16           -6.0506    -4.8999     0.1599 C.2     
  17 O17           -4.7645    -3.1070    -0.5950 O.2     
  18 C18           -7.2526    -4.3532    -0.1318 C.2     
  19 S19           -8.4820    -5.4538     0.3147 S.3     
  20 C20           -7.3216    -6.5795     0.8645 C.2     
  21 N21           -6.1317    -6.1198     0.6978 N.2     
  22 C22           -7.6460    -7.9268     1.4565 C.3     
  23 H23           -1.0951    -1.5739    -2.2186 H       
  24 H24           -1.0008     1.8797     0.3058 H       
  25 H25           -0.9273     2.3826    -3.8127 H       
  26 H26           -1.0143    -0.0500    -4.1796 H       
  27 H27            0.9335    -2.2551    -0.3552 H       
  28 H28            0.8446    -4.6899    -0.6941 H       
  29 H29           -1.2825    -5.8967    -0.4261 H       
  30 H30           -3.2471    -2.2211     0.5298 H       
  31 H31           -3.6115    -5.7324     0.5518 H       
  32 H32           -7.4100    -3.3805    -0.5737 H       
  33 H33           -8.7272    -8.0643     1.4761 H       
  34 H34           -7.1912    -8.7095     0.8494 H       
  35 H35           -7.2545    -7.9812     2.4723 H       
@<TRIPOS>BOND
   1    1    2 ar
   2    1    6 ar
   3    1   23 1
   4    2    3 ar
   5    2    7 1
   6    3    4 ar
   7    3   24 1
   8    4    5 ar
   9    5    6 ar
  10    5   25 1
  11    6   26 1
  12    7    8 1
  13    8    9 ar
  14    8   13 ar
  15    9   10 ar
  16    9   27 1
  17   10   11 ar
  18   10   28 1
  19   11   12 ar
  20   11   29 1
  21   12   13 ar
  22   12   14 1
  23   13   30 1
  24   14   15 am
  25   14   31 1
  26   15   16 1
  27   15   17 2
  28   16   18 2
  29   16   21 1
  30   18   19 1
  31   18   32 1
  32   19   20 1
  33   20   21 2
  34   20   22 1
  35   22   33 1
  36   22   34 1
  37   22   35 1

#	End of record

