#	Name: ASD05430272
#	Creating user name:	WinNT
#	Creation time:	15. 06. 2019 21:00

#	Modifying user name:	WinNT
#	Modification time:	15. 06. 2019 21:00

#	Program:	/corina/corina34_cracker 3.40 0067  02.08.2006

@<TRIPOS>MOLECULE
ASD05430272
  70   76    0    0    0
SMALL
NO_CHARGES


@<TRIPOS>ATOM
   1 C1             0.0709     1.1529     0.4448 C.ar    
   2 C2             0.0204    -0.0145    -0.3185 C.ar    
   3 C3             1.1535    -0.4687    -0.9804 C.ar    
   4 C4             2.3352     0.2320    -0.8869 C.ar    
   5 C5             2.3922     1.4016    -0.1241 C.ar    
   6 C6             1.2446     1.8578     0.5437 C.ar    
   7 C7             4.8672    -0.0114     0.2039 C.3     
   8 C8             4.8254     1.4947     0.0667 C.2     
   9 C9             3.6531     2.1536    -0.0208 C.2     
  10 C10            6.2130    -0.4460     0.7751 C.3     
  11 C11            6.8679     0.5756     1.7026 C.3     
  12 N12            7.0809     1.8206     0.9614 N.pl3   
  13 C13            6.1070     2.2159     0.0323 C.2     
  14 N14           -1.1791    -0.7318    -0.4170 N.pl3   
  15 C15           -1.7737    -1.1709    -1.5717 C.2     
  16 C16           -2.9019    -1.8112    -1.2103 C.2     
  17 N17           -2.9984    -1.7674     0.1268 N.2     
  18 C18           -1.9697    -1.1287     0.6140 C.2     
  19 C19           -3.8859    -2.4643    -2.1464 C.3     
  20 C20            8.2543     2.6633     1.1844 C.3     
  21 C21            8.7511     3.1854    -0.1688 C.3     
  22 N22            7.6212     3.7284    -0.9265 N.pl3   
  23 N23            6.3505     3.1491    -0.8327 N.2     
  24 C24            7.8811     3.8256     2.0682 C.ar    
  25 C25            8.7526     4.2523     3.0528 C.ar    
  26 C26            7.1960     5.9581     3.6902 C.ar    
  27 C27            6.3267     5.5339     2.6994 C.ar    
  28 C28            6.6699     4.4677     1.8899 C.ar    
  29 C29            8.4112     5.3178     3.8641 C.ar    
  30 F30            6.8618     7.0005     4.4819 F       
  31 C31            7.8236     4.8921    -1.7930 C.3     
  32 C32            0.6298     2.9030     1.4360 C.3     
  33 C33           -0.6734     2.1243     1.3222 C.3     
  34 C34            9.7889     4.2863     0.0589 C.3     
  35 C35            6.2001    -1.8703     1.3530 C.3     
  36 O36            7.4623    -2.0333     0.6742 O.3     
  37 C37            7.1747    -0.9996    -0.2896 C.3     
  38 O38           10.3367     4.6917    -1.1971 O.3     
  39 H39            1.1080    -1.3730    -1.5692 H       
  40 H40            3.2163    -0.1219    -1.4015 H       
  41 H41            4.0691    -0.3362     0.8715 H       
  42 H42            4.7256    -0.4680    -0.7756 H       
  43 H43            3.6389     3.2335    -0.0150 H       
  44 H44            6.2158     0.7653     2.5552 H       
  45 H45            7.8258     0.1902     2.0520 H       
  46 H46           -1.4079    -1.0298    -2.5780 H       
  47 H47           -1.7822    -0.9408     1.6609 H       
  48 H48           -3.6009    -3.5043    -2.3054 H       
  49 H49           -4.8841    -2.4237    -1.7103 H       
  50 H50           -3.8845    -1.9372    -3.1005 H       
  51 H51            9.0401     2.0770     1.6607 H       
  52 H52            9.2052     2.3681    -0.7291 H       
  53 H53            9.7005     3.7527     3.1882 H       
  54 H54            5.3808     6.0359     2.5595 H       
  55 H55            5.9917     4.1362     1.1175 H       
  56 H56            9.0919     5.6505     4.6337 H       
  57 H57            8.1003     4.5570    -2.7927 H       
  58 H58            6.9013     5.4705    -1.8460 H       
  59 H59            8.6200     5.5147    -1.3852 H       
  60 H60            1.0469     2.9173     2.4429 H       
  61 H61            0.5843     3.8927     0.9816 H       
  62 H62           -1.4630     2.6684     0.8040 H       
  63 H63           -1.0060     1.6899     2.2649 H       
  64 H64            9.3127     5.1405     0.5403 H       
  65 H65           10.5865     3.9073     0.6978 H       
  66 H66            6.2757    -1.9062     2.4398 H       
  67 H67            5.4023    -2.4994     0.9582 H       
  68 H68            6.6764    -1.3612    -1.1891 H       
  69 H69            8.0211    -0.3465    -0.5021 H       
  70 H70           11.0033     5.3889    -1.1288 H       
@<TRIPOS>BOND
   1    1    2 ar
   2    1    6 ar
   3    1   33 1
   4    2    3 ar
   5    2   14 1
   6    3    4 ar
   7    3   39 1
   8    4    5 ar
   9    4   40 1
  10    5    6 ar
  11    5    9 1
  12    6   32 1
  13    7    8 1
  14    7   10 1
  15    7   41 1
  16    7   42 1
  17    8    9 2
  18    8   13 1
  19    9   43 1
  20   10   11 1
  21   10   35 1
  22   10   37 1
  23   11   12 1
  24   11   44 1
  25   11   45 1
  26   12   13 1
  27   12   20 1
  28   13   23 2
  29   14   15 1
  30   14   18 1
  31   15   16 2
  32   15   46 1
  33   16   17 1
  34   16   19 1
  35   17   18 2
  36   18   47 1
  37   19   48 1
  38   19   49 1
  39   19   50 1
  40   20   21 1
  41   20   24 1
  42   20   51 1
  43   21   22 1
  44   21   34 1
  45   21   52 1
  46   22   23 1
  47   22   31 1
  48   24   25 ar
  49   24   28 ar
  50   25   29 ar
  51   25   53 1
  52   26   27 ar
  53   26   30 1
  54   26   29 ar
  55   27   28 ar
  56   27   54 1
  57   28   55 1
  58   29   56 1
  59   31   57 1
  60   31   58 1
  61   31   59 1
  62   32   33 1
  63   32   60 1
  64   32   61 1
  65   33   62 1
  66   33   63 1
  67   34   38 1
  68   34   64 1
  69   34   65 1
  70   35   36 1
  71   35   66 1
  72   35   67 1
  73   36   37 1
  74   37   68 1
  75   37   69 1
  76   38   70 1

#	End of record

