#	Name: ASD01180281
#	Creating user name:	WinNT
#	Creation time:	15. 06. 2019 19:07

#	Modifying user name:	WinNT
#	Modification time:	15. 06. 2019 19:07

#	Program:	/corina/corina34_cracker 3.40 0067  02.08.2006

@<TRIPOS>MOLECULE
ASD01180281
  59   62    0    0    0
SMALL
NO_CHARGES


@<TRIPOS>ATOM
   1 C1             0.4358     1.4132    -0.1166 C.ar    
   2 N2             0.6044     0.0995    -0.1942 N.ar    
   3 C3             1.8119    -0.4317    -0.1634 C.ar    
   4 C4             2.9234     0.4136    -0.0468 C.ar    
   5 C5             2.7012     1.7948     0.0324 C.ar    
   6 N6             1.4619     2.2468    -0.0054 N.ar    
   7 C7             4.2916    -0.1363    -0.0079 C.2     
   8 O8             4.4663    -1.3375    -0.0774 O.2     
   9 N9             5.3482     0.6929     0.1046 N.am    
  10 N10            6.9780    -1.1312     0.0739 N.pl3   
  11 N11            8.3817    -1.1494     0.1497 N.2     
  12 N12            8.7653     0.0771     0.2515 N.2     
  13 N13            7.7499     0.8633     0.2475 N.2     
  14 C14            6.6352     0.1756     0.1411 C.2     
  15 N15           -0.8433     1.9277    -0.1583 N.pl3   
  16 C16           -1.0615     3.3641     0.0299 C.3     
  17 C17           -0.9356     4.0798    -1.3166 C.3     
  18 C18           -1.0392     5.5912    -1.1024 C.3     
  19 C19            0.1661     6.0755    -0.2940 C.3     
  20 C20           -4.9731     4.0135     1.6291 C.ar    
  21 C21           -3.8953     4.7670     2.0898 C.ar    
  22 C22           -2.6348     4.5534     1.5698 C.ar    
  23 C23           -2.4403     3.5931     0.5935 C.ar    
  24 C24           -3.5067     2.8426     0.1322 C.ar    
  25 C25           -4.7714     3.0478     0.6451 C.ar    
  26 C26           -6.3295     4.2345     2.1888 C.ar    
  27 C27           -7.4072     3.4810     1.7281 C.ar    
  28 C28           -8.6667     3.6907     2.2522 C.ar    
  29 C29           -8.8602     4.6471     3.2326 C.ar    
  30 C30           -7.7940     5.3982     3.6932 C.ar    
  31 C31           -6.5291     5.1922     3.1810 C.ar    
  32 C32          -10.2379     4.8718     3.8006 C.3     
  33 F33          -10.4286     4.0360     4.9061 F       
  34 F34          -10.3664     6.2071     4.1978 F       
  35 F35          -11.1976     4.5811     2.8251 F       
  36 C36           -1.0606     6.2982    -2.4591 C.3     
  37 H37            1.9415    -1.5021    -0.2267 H       
  38 H38            3.5316     2.4793     0.1234 H       
  39 H39            5.2089     1.6512     0.1600 H       
  40 H40            6.3830    -1.8924    -0.0124 H       
  41 H41           -1.5983     1.3385    -0.3122 H       
  42 H42           -0.3164     3.7573     0.7214 H       
  43 H43            0.0286     3.8417    -1.7658 H       
  44 H44           -1.7362     3.7509    -1.9791 H       
  45 H45           -1.9563     5.8192    -0.5593 H       
  46 H46            0.0854     7.1500    -0.1297 H       
  47 H47            0.1891     5.5618     0.6671 H       
  48 H48            1.0825     5.8597    -0.8433 H       
  49 H49           -4.0461     5.5171     2.8521 H       
  50 H50           -1.7988     5.1369     1.9262 H       
  51 H51           -3.3492     2.0943    -0.6305 H       
  52 H52           -5.6032     2.4608     0.2848 H       
  53 H53           -7.2574     2.7345     0.9622 H       
  54 H54           -9.5028     3.1072     1.8958 H       
  55 H55           -7.9508     6.1439     4.4586 H       
  56 H56           -5.6963     5.7757     3.5450 H       
  57 H57           -1.9193     5.9531    -3.0351 H       
  58 H58           -1.1344     7.3749    -2.3066 H       
  59 H59           -0.1435     6.0701    -3.0022 H       
@<TRIPOS>BOND
   1    1    2 ar
   2    1    6 ar
   3    1   15 1
   4    2    3 ar
   5    3    4 ar
   6    3   37 1
   7    4    5 ar
   8    4    7 1
   9    5    6 ar
  10    5   38 1
  11    7    8 2
  12    7    9 am
  13    9   14 1
  14    9   39 1
  15   10   11 1
  16   10   14 1
  17   10   40 1
  18   11   12 2
  19   12   13 1
  20   13   14 2
  21   15   16 1
  22   15   41 1
  23   16   17 1
  24   16   23 1
  25   16   42 1
  26   17   18 1
  27   17   43 1
  28   17   44 1
  29   18   19 1
  30   18   36 1
  31   18   45 1
  32   19   46 1
  33   19   47 1
  34   19   48 1
  35   20   21 ar
  36   20   25 ar
  37   20   26 1
  38   21   22 ar
  39   21   49 1
  40   22   23 ar
  41   22   50 1
  42   23   24 ar
  43   24   25 ar
  44   24   51 1
  45   25   52 1
  46   26   27 ar
  47   26   31 ar
  48   27   28 ar
  49   27   53 1
  50   28   29 ar
  51   28   54 1
  52   29   30 ar
  53   29   32 1
  54   30   31 ar
  55   30   55 1
  56   31   56 1
  57   32   33 1
  58   32   34 1
  59   32   35 1
  60   36   57 1
  61   36   58 1
  62   36   59 1

#	End of record

