#	Name: ASD01148020
#	Creating user name:	WinNT
#	Creation time:	15. 06. 2019 19:01

#	Modifying user name:	WinNT
#	Modification time:	15. 06. 2019 19:01

#	Program:	/corina/corina34_cracker 3.40 0067  02.08.2006

@<TRIPOS>MOLECULE
ASD01148020
  46   46    0    0    0
SMALL
NO_CHARGES


@<TRIPOS>ATOM
   1 C1            -0.0162     1.3436     0.0094 C.2     
   2 N2             0.0021    -0.0041     0.0020 N.am    
   3 O3             1.0277     1.9654     0.0028 O.2     
   4 O4            -1.1912     2.0008     0.0186 O.3     
   5 C5             1.2806    -0.7192    -0.0140 C.3     
   6 C6             1.0960    -2.0915     0.5809 C.2     
   7 O7             0.0041    -2.4380     0.9790 O.2     
   8 N8             2.1444    -2.9337     0.6704 N.am    
   9 C9             1.9651    -4.2677     1.2487 C.3     
  10 C10            3.2802    -5.0034     1.2322 C.ar    
  11 C11            4.1404    -4.9049     2.3096 C.ar    
  12 C12            5.3483    -5.5811     2.2943 C.ar    
  13 C13            5.6932    -6.3556     1.1994 C.ar    
  14 C14            4.8316    -6.4526     0.1235 C.ar    
  15 C15            3.6232    -5.7809     0.1421 C.ar    
  16 F16            6.1901    -5.4852     3.3467 F       
  17 C17            1.7733    -0.8507    -1.4565 C.3     
  18 O18            0.8696    -1.6752    -2.1953 O.3     
  19 C19            1.2399    -1.8633    -3.5626 C.3     
  20 F20            1.2881    -0.6228    -4.2075 F       
  21 F21            2.4985    -2.4708    -3.6256 F       
  22 C22           -1.1349     3.4517     0.0262 C.3     
  23 C23           -0.4003     3.9401    -1.2239 C.3     
  24 C24           -2.5565     4.0172     0.0360 C.3     
  25 C25           -0.3885     3.9266     1.2745 C.3     
  26 H26           -0.8313    -0.5005     0.0073 H       
  27 H27            2.0142    -0.1651     0.5714 H       
  28 H28            3.0178    -2.6565     0.3520 H       
  29 H29            1.6140    -4.1740     2.2764 H       
  30 H30            1.2314    -4.8219     0.6633 H       
  31 H31            3.8706    -4.3003     3.1629 H       
  32 H32            6.6354    -6.8834     1.1863 H       
  33 H33            5.1004    -7.0566    -0.7305 H       
  34 H34            2.9484    -5.8609    -0.6974 H       
  35 H35            1.8219     0.1368    -1.9153 H       
  36 H36            2.7650    -1.3031    -1.4619 H       
  37 H37            0.5041    -2.4999    -4.0540 H       
  38 H38           -0.9321     3.6018    -2.1132 H       
  39 H39           -0.3581     5.0293    -1.2182 H       
  40 H40            0.6125     3.5373    -1.2309 H       
  41 H41           -3.0798     3.6692     0.9266 H       
  42 H42           -2.5142     5.1064     0.0417 H       
  43 H43           -3.0883     3.6789    -0.8533 H       
  44 H44            0.6243     3.5237     1.2675 H       
  45 H45           -0.3462     5.0157     1.2802 H       
  46 H46           -0.9118     3.5786     2.1651 H       
@<TRIPOS>BOND
   1    1    2 am
   2    1    3 2
   3    1    4 1
   4    2    5 1
   5    2   26 1
   6    4   22 1
   7    5    6 1
   8    5   17 1
   9    5   27 1
  10    6    7 2
  11    6    8 am
  12    8    9 1
  13    8   28 1
  14    9   10 1
  15    9   29 1
  16    9   30 1
  17   10   11 ar
  18   10   15 ar
  19   11   12 ar
  20   11   31 1
  21   12   13 ar
  22   12   16 1
  23   13   14 ar
  24   13   32 1
  25   14   15 ar
  26   14   33 1
  27   15   34 1
  28   17   18 1
  29   17   35 1
  30   17   36 1
  31   18   19 1
  32   19   20 1
  33   19   21 1
  34   19   37 1
  35   22   23 1
  36   22   25 1
  37   22   24 1
  38   23   38 1
  39   23   39 1
  40   23   40 1
  41   24   41 1
  42   24   42 1
  43   24   43 1
  44   25   44 1
  45   25   45 1
  46   25   46 1

#	End of record

