#	Name: ASD03310002
#	Creating user name:	WinNT
#	Creation time:	15. 06. 2019 20:35

#	Modifying user name:	WinNT
#	Modification time:	15. 06. 2019 20:35

#	Program:	/corina/corina34_cracker 3.40 0067  02.08.2006

@<TRIPOS>MOLECULE
ASD03310002
  64   68    0    0    0
SMALL
NO_CHARGES


@<TRIPOS>ATOM
   1 P1             0.5733     1.8520    -0.0782 P.3     
   2 O2             0.6959     0.3813     0.0335 O.2     
   3 O3             2.0100     2.4847    -0.4358 O.3     
   4 C4            -0.1719     4.8895     4.8781 C.3     
   5 C5            -0.2303     2.9122    -3.5720 C.3     
   6 N6            -4.0754     6.7824     7.7670 N.am    
   7 N7            -0.8187     4.1249    -2.9981 N.am    
   8 C8             0.4948     3.9003     5.8597 C.3     
   9 C9            -0.3545     1.7335    -2.5813 C.3     
  10 C10           -2.7346     6.9966     7.8861 C.2     
  11 C11           -0.1355     5.2830    -3.0438 C.2     
  12 N12           -2.2771     7.8161     8.8871 N.pl3   
  13 O13           -0.3169     3.7253     7.0226 O.3     
  14 O14           -0.4780     2.2160    -1.2419 O.3     
  15 O15            0.9641     5.3102    -3.5620 O.2     
  16 C16            0.5861     2.5816     5.0597 C.3     
  17 C17           -1.6485     1.0108    -3.0179 C.3     
  18 N18           -1.8672     6.4404     7.0701 N.2     
  19 N19           -0.6522     6.4121    -2.5243 N.am    
  20 O20           -0.1664     1.5519     5.7042 O.3     
  21 O21           -2.6107     1.0249    -1.9615 O.3     
  22 C22           -0.0362     2.9300     3.6894 C.3     
  23 C23           -2.1530     1.8384    -4.2208 C.3     
  24 C24           -2.2674     5.6340     6.0801 C.2     
  25 C25           -1.8705     6.3988    -1.9466 C.2     
  26 O26            0.1198     4.3605     3.5662 O.3     
  27 O27           -0.9748     2.4949    -4.7371 O.3     
  28 O28           -2.3390     7.4200    -1.4767 O.2     
  29 C29            0.7151     2.2135     2.5655 C.3     
  30 C30           -2.7591     0.9191    -5.2831 C.3     
  31 C31           -3.6316     5.3747     5.9057 C.2     
  32 C32           -2.6002     5.1869    -1.8918 C.2     
  33 O33            0.0547     2.4551     1.3215 O.3     
  34 O34           -3.3232     1.7096    -6.3314 O.3     
  35 C35           -4.5543     5.9797     6.7909 C.2     
  36 C36           -2.0603     4.0703    -2.4257 C.2     
  37 O37           -5.7519     5.7816     6.6763 O.2     
  38 N38           -3.7499     4.5394     4.8450 N.2     
  39 C39           -2.5677     4.2769     4.3695 C.2     
  40 N40           -1.6192     4.9314     5.1008 N.pl3   
  41 H41            2.0046     3.4476    -0.5245 H       
  42 H42            0.2592     5.8843     4.9905 H       
  43 H43            0.8151     3.0834    -3.8289 H       
  44 H44           -4.6887     7.2051     8.3884 H       
  45 H45            1.4889     4.2502     6.1381 H       
  46 H46            0.5049     1.0687    -2.6690 H       
  47 H47           -2.9051     8.2335     9.4973 H       
  48 H48           -1.3257     7.9781     8.9846 H       
  49 H49            0.0545     3.1137     7.6731 H       
  50 H50            1.6262     2.2770     4.9428 H       
  51 H51           -1.4303    -0.0133    -3.3208 H       
  52 H52           -0.1461     7.2385    -2.5654 H       
  53 H53            0.1447     1.3355     6.5938 H       
  54 H54           -3.4429     0.5844    -2.1816 H       
  55 H55           -1.0923     2.6607     3.6728 H       
  56 H56           -2.8856     2.5760    -3.8933 H       
  57 H57            1.7366     2.5901     2.5137 H       
  58 H58            0.7325     1.1422     2.7656 H       
  59 H59           -1.9813     0.2745    -5.6924 H       
  60 H60           -3.5385     0.3058    -4.8309 H       
  61 H61           -3.5775     5.1568    -1.4331 H       
  62 H62           -3.7263     1.1914    -7.0413 H       
  63 H63           -2.6042     3.1377    -2.3974 H       
  64 H64           -2.3670     3.6370     3.5230 H       
@<TRIPOS>BOND
   1    1    2 2
   2    1    3 1
   3    1   14 1
   4    1   33 1
   5    3   41 1
   6    4    8 1
   7    4   26 1
   8    4   40 1
   9    4   42 1
  10    5    7 1
  11    5    9 1
  12    5   27 1
  13    5   43 1
  14    6   10 1
  15    6   35 am
  16    6   44 1
  17    7   11 am
  18    7   36 1
  19    8   13 1
  20    8   16 1
  21    8   45 1
  22    9   14 1
  23    9   17 1
  24    9   46 1
  25   10   12 1
  26   10   18 2
  27   11   15 2
  28   11   19 am
  29   12   47 1
  30   12   48 1
  31   13   49 1
  32   16   20 1
  33   16   22 1
  34   16   50 1
  35   17   21 1
  36   17   23 1
  37   17   51 1
  38   18   24 1
  39   19   25 am
  40   19   52 1
  41   20   53 1
  42   21   54 1
  43   22   26 1
  44   22   29 1
  45   22   55 1
  46   23   27 1
  47   23   30 1
  48   23   56 1
  49   24   31 2
  50   24   40 1
  51   25   28 2
  52   25   32 1
  53   29   33 1
  54   29   57 1
  55   29   58 1
  56   30   34 1
  57   30   59 1
  58   30   60 1
  59   31   35 1
  60   31   38 1
  61   32   36 2
  62   32   61 1
  63   34   62 1
  64   35   37 2
  65   36   63 1
  66   38   39 2
  67   39   40 1
  68   39   64 1

#	End of record

