#	Name: ASD04122005
#	Creating user name:	WinNT
#	Creation time:	15. 06. 2019 20:48

#	Modifying user name:	WinNT
#	Modification time:	15. 06. 2019 20:48

#	Program:	/corina/corina34_cracker 3.40 0067  02.08.2006

@<TRIPOS>MOLECULE
ASD04122005
  43   46    0    0    0
SMALL
NO_CHARGES


@<TRIPOS>ATOM
   1 C1             0.0315     2.0975     0.0335 C.ar    
   2 C2             0.3942     0.7639     0.2470 C.ar    
   3 N3            -0.5557    -0.2513     0.4347 N.pl3   
   4 C4            -1.8177    -0.3750    -0.0891 C.2     
   5 C5            -2.5712     0.5544    -0.8450 C.2     
   6 C6            -2.0642     1.9264    -1.1023 C.3     
   7 O7            -1.2682     2.4192    -0.0534 O.3     
   8 C8            -0.3025    -1.3547     1.1997 C.2     
   9 C9            -1.3495    -2.2076     1.1104 C.2     
  10 C10           -2.3138    -1.6166     0.2971 C.2     
  11 C11            1.0121     3.0653    -0.1130 C.ar    
  12 C12            2.3481     2.7178    -0.0637 C.ar    
  13 C13            2.7113     1.3978     0.1323 C.ar    
  14 C14            1.7429     0.4273     0.2866 C.ar    
  15 O15           -3.6512     0.2241    -1.2914 O.2     
  16 C16           -1.2468     1.9130    -2.3683 C.ar    
  17 C17           -1.2826     0.8114    -3.2023 C.ar    
  18 C18           -0.5326     0.7991    -4.3637 C.ar    
  19 C19            0.2526     1.8884    -4.6909 C.ar    
  20 C20            0.2877     2.9907    -3.8571 C.ar    
  21 C21           -0.4654     3.0048    -2.6982 C.ar    
  22 C22           -3.2569     2.8643    -1.2988 C.3     
  23 C23           -4.1226     2.8598    -0.0373 C.3     
  24 C24           -0.5709    -0.4024    -5.2726 C.3     
  25 H25            0.5914    -1.5202     1.7827 H       
  26 H26           -1.4244    -3.1745     1.5857 H       
  27 H27           -3.2669    -2.0416     0.0191 H       
  28 H28            0.7305     4.0966    -0.2667 H       
  29 H29            3.1084     3.4762    -0.1785 H       
  30 H30            3.7560     1.1258     0.1642 H       
  31 H31            2.0344    -0.6014     0.4392 H       
  32 H32           -1.8961    -0.0398    -2.9466 H       
  33 H33            0.8390     1.8785    -5.5978 H       
  34 H34            0.9015     3.8418    -4.1126 H       
  35 H35           -0.4380     3.8658    -2.0469 H       
  36 H36           -2.8967     3.8754    -1.4886 H       
  37 H37           -3.8502     2.5246    -2.1478 H       
  38 H38           -4.4828     1.8487     0.1525 H       
  39 H39           -3.5293     3.1994     0.8117 H       
  40 H40           -4.9723     3.5279    -0.1773 H       
  41 H41           -1.3684    -0.2785    -6.0052 H       
  42 H42            0.3846    -0.4984    -5.7884 H       
  43 H43           -0.7565    -1.2993    -4.6816 H       
@<TRIPOS>BOND
   1    1    2 ar
   2    1   11 ar
   3    1    7 1
   4    2    3 1
   5    2   14 ar
   6    3    8 1
   7    3    4 1
   8    4    5 1
   9    4   10 2
  10    5    6 1
  11    5   15 2
  12    6    7 1
  13    6   16 1
  14    6   22 1
  15    8    9 2
  16    8   25 1
  17    9   10 1
  18    9   26 1
  19   10   27 1
  20   11   12 ar
  21   11   28 1
  22   12   13 ar
  23   12   29 1
  24   13   14 ar
  25   13   30 1
  26   14   31 1
  27   16   17 ar
  28   16   21 ar
  29   17   18 ar
  30   17   32 1
  31   18   19 ar
  32   18   24 1
  33   19   20 ar
  34   19   33 1
  35   20   21 ar
  36   20   34 1
  37   21   35 1
  38   22   23 1
  39   22   36 1
  40   22   37 1
  41   23   38 1
  42   23   39 1
  43   23   40 1
  44   24   41 1
  45   24   42 1
  46   24   43 1

#	End of record

