#	Name: ASD03091661
#	Creating user name:	WinNT
#	Creation time:	15. 06. 2019 20:31

#	Modifying user name:	WinNT
#	Modification time:	15. 06. 2019 20:31

#	Program:	/corina/corina34_cracker 3.40 0067  02.08.2006

@<TRIPOS>MOLECULE
ASD03091661
  40   42    0    0    0
SMALL
NO_CHARGES


@<TRIPOS>ATOM
   1 Cl1            0.0000     0.0000     0.0000 Cl      
   2 H2             0.0000     1.3700     0.0000 H       
   3 C3            14.5230    10.3500     6.5707 C.ar    
   4 C4            14.5420     8.9500     6.5630 C.ar    
   5 C5            15.7654     8.2697     6.5484 C.ar    
   6 C6            16.9468     8.9729     6.5416 C.ar    
   7 C7            16.9325    10.3626     6.5497 C.ar    
   8 C8            15.7570    11.0444     6.5626 C.ar    
   9 S9            12.8918     8.3383     6.5754 S.3     
  10 C10           12.2357     9.9658     6.5904 C.2     
  11 C11           13.2193    10.8712     6.5916 C.2     
  12 C12           10.8017    10.2890     6.6058 C.2     
  13 O13           10.4400    11.4505     6.6151 O.2     
  14 N14            9.8876     9.2986     6.6097 N.am    
  15 N15            6.9512     8.8768     8.4055 N.3     
  16 C16            7.9995     9.8491     8.0681 C.3     
  17 C17            8.4586     9.6207     6.6251 C.3     
  18 C18            7.6619     8.4522     6.0312 C.3     
  19 C19            6.1689     8.7999     6.0866 C.3     
  20 C20            5.7732     9.0503     7.5445 C.3     
  21 C21            7.4619     7.5012     8.3270 C.3     
  22 C22            7.9063     7.2061     6.8917 C.3     
  23 Cl23          15.7909     6.5339     6.5394 Cl      
  24 H24           17.8884     8.4441     6.5303 H       
  25 H25           17.8656    10.9065     6.5446 H       
  26 H26           15.7640    12.1244     6.5680 H       
  27 H27           13.0240    11.9334     6.6003 H       
  28 H28           10.1760     8.3725     6.6023 H       
  29 H29            7.6038    10.8598     8.1682 H       
  30 H30            8.8454     9.7209     8.7434 H       
  31 H31            8.2788    10.5212     6.0377 H       
  32 H32            7.9677     8.2758     5.0000 H       
  33 H33            5.9809     9.6976     5.4977 H       
  34 H34            5.5857     7.9701     5.6873 H       
  35 H35            5.0000     8.3405     7.8386 H       
  36 H36            5.3930    10.0666     7.6487 H       
  37 H37            8.3113     7.3896     9.0009 H       
  38 H38            6.6749     6.8041     8.6146 H       
  39 H39            7.3301     6.3700     6.4955 H       
  40 H40            8.9677     6.9579     6.8817 H       
@<TRIPOS>BOND
   1    1    2 1
   2    3    4 ar
   3    3    8 ar
   4    3   11 1
   5    4    5 ar
   6    4    9 1
   7    5    6 ar
   8    5   23 1
   9    6    7 ar
  10    6   24 1
  11    7    8 ar
  12    7   25 1
  13    8   26 1
  14    9   10 1
  15   10   11 2
  16   10   12 1
  17   11   27 1
  18   12   13 2
  19   12   14 am
  20   14   17 1
  21   14   28 1
  22   15   16 1
  23   15   20 1
  24   15   21 1
  25   16   17 1
  26   16   29 1
  27   16   30 1
  28   17   18 1
  29   17   31 1
  30   18   19 1
  31   18   22 1
  32   18   32 1
  33   19   20 1
  34   19   33 1
  35   19   34 1
  36   20   35 1
  37   20   36 1
  38   21   22 1
  39   21   37 1
  40   21   38 1
  41   22   39 1
  42   22   40 1

#	End of record

