#	Name: ASD01913506
#	Creating user name:	WinNT
#	Creation time:	15. 06. 2019 20:01

#	Modifying user name:	WinNT
#	Modification time:	15. 06. 2019 20:01

#	Program:	/corina/corina34_cracker 3.40 0067  02.08.2006

@<TRIPOS>MOLECULE
ASD01913506
  39   41    0    0    0
SMALL
NO_CHARGES


@<TRIPOS>ATOM
   1 C1            -1.3197     1.4773    -0.5717 C.ar    
   2 C2            -1.2182     0.0980    -0.7371 C.ar    
   3 C3            -0.6226    -0.4005    -1.8892 C.ar    
   4 N4            -0.1596     0.4166    -2.8137 N.ar    
   5 C5            -0.2405     1.7269    -2.6869 C.ar    
   6 C6            -0.8193     2.2982    -1.5691 C.ar    
   7 C7            -1.6160    -2.1535     0.0568 C.ar    
   8 C8            -0.3781    -2.7847     0.0649 C.ar    
   9 N9            -0.2839    -4.0887    -0.1032 N.ar    
  10 C10           -1.3474    -4.8456    -0.2846 C.ar    
  11 C11           -2.6213    -4.2905    -0.3060 C.ar    
  12 C12           -2.7641    -2.9177    -0.1319 C.ar    
  13 N13           -3.7445    -5.1011    -0.5000 N.am    
  14 C14           -4.8216    -4.6162    -1.1491 C.2     
  15 N15           -1.7076    -0.7714     0.2413 N.pl3   
  16 C16           -6.0456    -5.4365    -1.2656 C.ar    
  17 O17           -4.7863    -3.5040    -1.6387 O.2     
  18 C18           -7.1627    -4.9372    -1.9371 C.ar    
  19 C19           -8.3022    -5.7079    -2.0430 C.ar    
  20 C20           -8.3396    -6.9733    -1.4855 C.ar    
  21 C21           -7.2352    -7.4751    -0.8178 C.ar    
  22 C22           -6.0873    -6.7163    -0.7095 C.ar    
  23 Br23          -7.2974    -9.2060    -0.0588 Br      
  24 C24           -2.3167    -0.2339     1.4605 C.3     
  25 H25           -1.7810     1.8964     0.3103 H       
  26 H26           -0.5380    -1.4681    -2.0283 H       
  27 H27            0.1514     2.3624    -3.4672 H       
  28 H28           -0.8812     3.3723    -1.4747 H       
  29 H29            0.5180    -2.1996     0.2103 H       
  30 H30           -1.2275    -5.9105    -0.4186 H       
  31 H31           -3.7406    -2.4567    -0.1432 H       
  32 H32           -3.7484    -6.0123    -0.1674 H       
  33 H33           -7.1352    -3.9493    -2.3727 H       
  34 H34           -9.1672    -5.3222    -2.5621 H       
  35 H35           -9.2343    -7.5722    -1.5709 H       
  36 H36           -5.2264    -7.1084    -0.1886 H       
  37 H37           -3.3870    -0.1002     1.3034 H       
  38 H38           -2.1544    -0.9288     2.2845 H       
  39 H39           -1.8618     0.7271     1.7006 H       
@<TRIPOS>BOND
   1    1    2 ar
   2    1    6 ar
   3    1   25 1
   4    2    3 ar
   5    2   15 1
   6    3    4 ar
   7    3   26 1
   8    4    5 ar
   9    5    6 ar
  10    5   27 1
  11    6   28 1
  12    7    8 ar
  13    7   12 ar
  14    7   15 1
  15    8    9 ar
  16    8   29 1
  17    9   10 ar
  18   10   11 ar
  19   10   30 1
  20   11   12 ar
  21   11   13 1
  22   12   31 1
  23   13   14 am
  24   13   32 1
  25   14   16 1
  26   14   17 2
  27   15   24 1
  28   16   18 ar
  29   16   22 ar
  30   18   19 ar
  31   18   33 1
  32   19   20 ar
  33   19   34 1
  34   20   21 ar
  35   20   35 1
  36   21   22 ar
  37   21   23 1
  38   22   36 1
  39   24   37 1
  40   24   38 1
  41   24   39 1

#	End of record

