#	Name: ASD01811771
#	Creating user name:	WinNT
#	Creation time:	15. 06. 2019 19:27

#	Modifying user name:	WinNT
#	Modification time:	15. 06. 2019 19:27

#	Program:	/corina/corina34_cracker 3.40 0067  02.08.2006

@<TRIPOS>MOLECULE
ASD01811771
  62   66    0    0    0
SMALL
NO_CHARGES


@<TRIPOS>ATOM
   1 C1            -0.0167     1.3805     0.0096 C.ar    
   2 C2             0.0021    -0.0041     0.0020 C.ar    
   3 C3             1.2075    -0.6836    -0.0127 C.ar    
   4 C4             2.3988     0.0118    -0.0203 C.ar    
   5 C5             2.3881     1.4079    -0.0132 C.ar    
   6 C6             1.1658     2.0836     0.0021 C.ar    
   7 C7            -1.2939    -0.7731     0.0103 C.3     
   8 C8             3.4708     2.4102    -0.0183 C.2     
   9 N9             2.9565     3.6521    -0.0072 N.am    
  10 C10            1.4923     3.5561     0.0064 C.3     
  11 C11            1.2188    -2.1905    -0.0199 C.3     
  12 C12            1.0853    -2.6871    -1.4364 C.ar    
  13 C13            2.2179    -2.9046    -2.2000 C.ar    
  14 C14            2.1015    -3.3598    -3.4977 C.ar    
  15 C15            0.8399    -3.6002    -4.0385 C.ar    
  16 C16           -0.2978    -3.3793    -3.2647 C.ar    
  17 C17           -0.1693    -2.9291    -1.9663 C.ar    
  18 C18            0.7084    -4.0891    -5.4331 C.ar    
  19 C19            1.8382    -4.3157    -6.2238 C.ar    
  20 C20            1.6708    -4.7710    -7.5157 C.ar    
  21 N21            0.4658    -4.9913    -8.0051 N.ar    
  22 C22           -0.6260    -4.7901    -7.2922 C.ar    
  23 C23           -0.5487    -4.3412    -5.9900 C.ar    
  24 C24           -1.9754    -5.0593    -7.9069 C.3     
  25 O25            4.6581     2.1501    -0.0300 O.2     
  26 C26            3.7301     4.8962    -0.0086 C.3     
  27 C27            4.5993     4.9548    -1.2663 C.3     
  28 C28            5.4073     6.2541    -1.2678 C.3     
  29 C29            6.3016     6.2999    -0.0272 C.3     
  30 C30            5.4324     6.2412     1.2305 C.3     
  31 C31            4.6244     4.9420     1.2320 C.3     
  32 O32            3.7640     4.9120    -2.4250 O.3     
  33 H33           -0.9590     1.9081     0.0170 H       
  34 H34            3.3374    -0.5224    -0.0314 H       
  35 H35           -1.6162    -0.9530    -1.0154 H       
  36 H36           -1.1473    -1.7267     0.5176 H       
  37 H37           -2.0556    -0.1960     0.5345 H       
  38 H38            1.0774     4.0343    -0.8809 H       
  39 H39            1.0945     4.0255     0.9061 H       
  40 H40            2.1570    -2.5488     0.4038 H       
  41 H41            0.3854    -2.5629     0.5758 H       
  42 H42            3.1952    -2.7176    -1.7800 H       
  43 H43            2.9865    -3.5290    -4.0931 H       
  44 H44           -1.2780    -3.5641    -3.6788 H       
  45 H45           -1.0504    -2.7575    -1.3657 H       
  46 H46            2.8277    -4.1368    -5.8297 H       
  47 H47            2.5379    -4.9491    -8.1344 H       
  48 H48           -1.4466    -4.1786    -5.4122 H       
  49 H49           -2.2602    -6.0945    -7.7191 H       
  50 H50           -2.7157    -4.3928    -7.4644 H       
  51 H51           -1.9262    -4.8852    -8.9818 H       
  52 H52            3.0494     5.7474     0.0026 H       
  53 H53            5.2801     4.1036    -1.2776 H       
  54 H54            6.0265     6.2958    -2.1639 H       
  55 H55            4.7265     7.1053    -1.2566 H       
  56 H56            6.9823     5.4487    -0.0385 H       
  57 H57            6.8772     7.2255    -0.0283 H       
  58 H58            6.0695     6.2739     2.1143 H       
  59 H59            4.7516     7.0924     1.2417 H       
  60 H60            4.0052     4.9002     2.1280 H       
  61 H61            5.3052     4.0908     1.2208 H       
  62 H62            4.2490     4.9455    -3.2609 H       
@<TRIPOS>BOND
   1    1    2 ar
   2    1    6 ar
   3    1   33 1
   4    2    3 ar
   5    2    7 1
   6    3    4 ar
   7    3   11 1
   8    4    5 ar
   9    4   34 1
  10    5    6 ar
  11    5    8 1
  12    6   10 1
  13    7   35 1
  14    7   36 1
  15    7   37 1
  16    8    9 am
  17    8   25 2
  18    9   10 1
  19    9   26 1
  20   10   38 1
  21   10   39 1
  22   11   12 1
  23   11   40 1
  24   11   41 1
  25   12   13 ar
  26   12   17 ar
  27   13   14 ar
  28   13   42 1
  29   14   15 ar
  30   14   43 1
  31   15   16 ar
  32   15   18 1
  33   16   17 ar
  34   16   44 1
  35   17   45 1
  36   18   19 ar
  37   18   23 ar
  38   19   20 ar
  39   19   46 1
  40   20   21 ar
  41   20   47 1
  42   21   22 ar
  43   22   23 ar
  44   22   24 1
  45   23   48 1
  46   24   49 1
  47   24   50 1
  48   24   51 1
  49   26   27 1
  50   26   31 1
  51   26   52 1
  52   27   28 1
  53   27   32 1
  54   27   53 1
  55   28   29 1
  56   28   54 1
  57   28   55 1
  58   29   30 1
  59   29   56 1
  60   29   57 1
  61   30   31 1
  62   30   58 1
  63   30   59 1
  64   31   60 1
  65   31   61 1
  66   32   62 1

#	End of record

