#	Name: ASD01911967
#	Creating user name:	WinNT
#	Creation time:	15. 06. 2019 19:58

#	Modifying user name:	WinNT
#	Modification time:	15. 06. 2019 19:58

#	Program:	/corina/corina34_cracker 3.40 0067  02.08.2006

@<TRIPOS>MOLECULE
ASD01911967
  40   42    0    0    0
SMALL
NO_CHARGES


@<TRIPOS>ATOM
   1 C1             0.7357     1.1445    -0.1735 C.ar    
   2 C2             0.5315    -0.2333    -0.1623 C.ar    
   3 C3             1.6414    -1.0653    -0.2891 C.ar    
   4 N4             2.8401    -0.5208    -0.4147 N.ar    
   5 C5             2.9915     0.7885    -0.4207 C.ar    
   6 N6             1.9671     1.6094    -0.3032 N.ar    
   7 N7            -0.7531    -0.7669    -0.0270 N.pl3   
   8 C8            -0.9371    -2.1532    -0.0181 C.ar    
   9 C9            -1.3408    -4.2066    -1.2010 C.ar    
  10 C10           -1.3025    -4.9032    -0.0058 C.ar    
  11 C11           -1.0870    -4.2261     1.1877 C.ar    
  12 C12           -0.9043    -2.8506     1.1816 C.ar    
  13 N13           -1.0486    -4.9317     2.3956 N.am    
  14 C14           -0.5139    -6.1682     2.4370 C.2     
  15 C15           -0.3789    -6.8723     3.7298 C.ar    
  16 O16           -0.1426    -6.7045     1.4111 O.2     
  17 C17           -0.8050    -6.2575     4.9094 C.ar    
  18 C18           -1.1587    -2.8336    -1.2103 C.ar    
  19 F19           -1.1968    -2.1551    -2.3780 F       
  20 C20           -1.9069     0.1260     0.1055 C.3     
  21 C21           -0.6793    -6.9134     6.1182 C.ar    
  22 C22           -0.1323    -8.1798     6.1700 C.ar    
  23 C23            0.2978    -8.8070     4.9974 C.ar    
  24 C24            0.1685    -8.1529     3.7737 C.ar    
  25 C25            0.8649   -10.1207     5.0527 C.1     
  26 N26            1.3149   -11.1629     5.0965 N.1     
  27 F27           -1.5501    -4.8674    -2.3606 F       
  28 H28           -0.0995     1.8231    -0.0822 H       
  29 H29            1.5249    -2.1390    -0.2847 H       
  30 H30            3.9842     1.2008    -0.5249 H       
  31 H31           -1.4407    -5.9743    -0.0010 H       
  32 H32           -0.7363    -2.3234     2.1090 H       
  33 H33           -1.4068    -4.5310     3.2030 H       
  34 H34           -1.2335    -5.2667     4.8761 H       
  35 H35           -2.3041     0.3556    -0.8832 H       
  36 H36           -2.6775    -0.3621     0.7023 H       
  37 H37           -1.5977     1.0489     0.5962 H       
  38 H38           -1.0101    -6.4332     7.0272 H       
  39 H39           -0.0362    -8.6869     7.1187 H       
  40 H40            0.4988    -8.6331     2.8644 H       
@<TRIPOS>BOND
   1    1    2 ar
   2    1    6 ar
   3    1   28 1
   4    2    3 ar
   5    2    7 1
   6    3    4 ar
   7    3   29 1
   8    4    5 ar
   9    5    6 ar
  10    5   30 1
  11    7    8 1
  12    7   20 1
  13    8   18 ar
  14    8   12 ar
  15    9   10 ar
  16    9   27 1
  17    9   18 ar
  18   10   11 ar
  19   10   31 1
  20   11   12 ar
  21   11   13 1
  22   12   32 1
  23   13   14 am
  24   13   33 1
  25   14   15 1
  26   14   16 2
  27   15   17 ar
  28   15   24 ar
  29   17   21 ar
  30   17   34 1
  31   18   19 1
  32   20   35 1
  33   20   36 1
  34   20   37 1
  35   21   22 ar
  36   21   38 1
  37   22   23 ar
  38   22   39 1
  39   23   24 ar
  40   23   25 1
  41   24   40 1
  42   25   26 3

#	End of record

