#	Name: ASD04882448
#	Creating user name:	WinNT
#	Creation time:	15. 06. 2019 20:54

#	Modifying user name:	WinNT
#	Modification time:	15. 06. 2019 20:54

#	Program:	/corina/corina34_cracker 3.40 0067  02.08.2006

@<TRIPOS>MOLECULE
ASD04882448
  85   90    0    0    0
SMALL
NO_CHARGES


@<TRIPOS>ATOM
   1 C1            -0.0215     1.4012    -0.0092 C.ar    
   2 C2            -0.0116     0.0036    -0.0052 C.ar    
   3 C3            -1.2094    -0.7019    -0.0170 C.ar    
   4 C4            -2.4096    -0.0268    -0.0325 C.ar    
   5 C5            -2.4267     1.3708    -0.0366 C.ar    
   6 C6            -1.2239     2.0825    -0.0186 C.ar    
   7 N7             1.1998    -0.6830     0.0100 N.3     
   8 C8             1.3065    -1.5362     1.2018 C.3     
   9 C9             1.3728    -1.4731    -1.2170 C.3     
  10 C10            2.7466    -2.1474    -1.1969 C.3     
  11 N11            2.8534    -3.0005    -0.0052 N.3     
  12 C12            2.6804    -2.2105     1.2218 C.3     
  13 C13           -3.7126     2.0937    -0.0537 C.2     
  14 O14           -3.7265     3.3096    -0.0573 O.2     
  15 N15           -4.8719     1.4065    -0.0655 N.am    
  16 N16            1.1866     2.1110     0.0021 N.am    
  17 C17            1.2296     3.3600     0.5068 C.2     
  18 C18            2.5162     4.0733     0.5999 C.2     
  19 C19            2.7115     5.3279     1.0899 C.2     
  20 C20            4.0684    -3.6893     0.0101 C.ar    
  21 O21            0.2069     3.8985     0.8853 O.2     
  22 N22            3.7329     3.5991     0.2178 N.2     
  23 C23            4.6245     4.5142     0.4546 C.2     
  24 O24            4.0251     5.5869     0.9903 O.3     
  25 C25            5.2665    -2.9869     0.0214 C.ar    
  26 C26            6.4663    -3.6712     0.0370 C.ar    
  27 C27            6.4754    -5.0538     0.0410 C.ar    
  28 C28            5.2841    -5.7563     0.0298 C.ar    
  29 C29            4.0811    -5.0785     0.0199 C.ar    
  30 C30           -6.1489     2.1244    -0.0825 C.3     
  31 C31            2.7835    -5.8449     0.0083 C.3     
  32 C32            6.7245     5.3961    -0.7918 C.3     
  33 C33            6.0999     4.3880     0.1749 C.3     
  34 C34            7.0167     5.4912     0.7070 C.3     
  35 C35           -7.3003     1.1169    -0.0933 C.3     
  36 C36           -8.6339     1.8667    -0.1110 C.3     
  37 N37           -9.7363     0.9020    -0.1214 N.am    
  38 C38          -11.0120     1.3366    -0.1376 C.2     
  39 C39          -12.1270     0.3609    -0.1480 C.ar    
  40 O40          -11.2477     2.5287    -0.1436 O.2     
  41 N41          -11.8634    -0.9398    -0.1413 N.ar    
  42 C42          -13.4435     0.8166    -0.1590 C.ar    
  43 C43          -14.4758    -0.1080    -0.1682 C.ar    
  44 C44          -14.1554    -1.4568    -0.1661 C.ar    
  45 C45          -12.8236    -1.8385    -0.1497 C.ar    
  46 C46          -12.4703    -3.3035    -0.1479 C.3     
  47 H47           -1.1986    -1.7819    -0.0142 H       
  48 H48           -3.3385    -0.5778    -0.0419 H       
  49 H49           -1.2340     3.1625    -0.0213 H       
  50 H50            1.1876    -0.9264     2.0974 H       
  51 H51            0.5278    -2.2984     1.1743 H       
  52 H52            0.5947    -2.2346    -1.2719 H       
  53 H53            1.3021    -0.8173    -2.0848 H       
  54 H54            2.8655    -2.7571    -2.0925 H       
  55 H55            3.5254    -1.3852    -1.1695 H       
  56 H56            3.4584    -1.4490     1.2767 H       
  57 H57            2.7510    -2.8662     2.0896 H       
  58 H58           -4.8609     0.4366    -0.0627 H       
  59 H59            1.9919     1.7035    -0.3533 H       
  60 H60            1.9539     5.9894     1.4836 H       
  61 H61            5.2601    -1.9069     0.0176 H       
  62 H62            7.3983    -3.1256     0.0458 H       
  63 H63            7.4148    -5.5864     0.0524 H       
  64 H64            5.2947    -6.8363     0.0325 H       
  65 H65           -6.2242     2.7528     0.8049 H       
  66 H66           -6.2033     2.7479    -0.9749 H       
  67 H67            2.4619    -6.0304     1.0331 H       
  68 H68            2.0225    -5.2629    -0.5117 H       
  69 H69            2.9276    -6.7956    -0.5050 H       
  70 H70            7.5265     5.0419    -1.4395 H       
  71 H71            6.0682     6.1506    -1.2255 H       
  72 H72            6.4911     3.3706     0.1632 H       
  73 H73            8.0110     5.1997     1.0453 H       
  74 H74            6.5527     6.3084     1.2593 H       
  75 H75           -7.2249     0.4885    -0.9807 H       
  76 H76           -7.2459     0.4934     0.7991 H       
  77 H77           -8.7092     2.4951     0.7764 H       
  78 H78           -8.6883     2.4902    -1.0035 H       
  79 H79           -9.5482    -0.0496    -0.1165 H       
  80 H80          -13.6565     1.8754    -0.1599 H       
  81 H81          -15.5063     0.2148    -0.1764 H       
  82 H82          -14.9364    -2.2027    -0.1728 H       
  83 H83          -12.3719    -3.6548    -1.1750 H       
  84 H84          -11.5266    -3.4491     0.3779 H       
  85 H85          -13.2568    -3.8663     0.3548 H       
@<TRIPOS>BOND
   1    1    2 ar
   2    1   16 1
   3    1    6 ar
   4    2    3 ar
   5    2    7 1
   6    3    4 ar
   7    3   47 1
   8    4    5 ar
   9    4   48 1
  10    5    6 ar
  11    5   13 1
  12    6   49 1
  13    7    8 1
  14    7    9 1
  15    8   12 1
  16    8   50 1
  17    8   51 1
  18    9   10 1
  19    9   52 1
  20    9   53 1
  21   10   11 1
  22   10   54 1
  23   10   55 1
  24   11   12 1
  25   11   20 1
  26   12   56 1
  27   12   57 1
  28   13   14 2
  29   13   15 am
  30   15   30 1
  31   15   58 1
  32   16   17 am
  33   16   59 1
  34   17   18 1
  35   17   21 2
  36   18   22 1
  37   18   19 2
  38   19   24 1
  39   19   60 1
  40   20   25 ar
  41   20   29 ar
  42   22   23 2
  43   23   24 1
  44   23   33 1
  45   25   26 ar
  46   25   61 1
  47   26   27 ar
  48   26   62 1
  49   27   28 ar
  50   27   63 1
  51   28   29 ar
  52   28   64 1
  53   29   31 1
  54   30   35 1
  55   30   65 1
  56   30   66 1
  57   31   67 1
  58   31   68 1
  59   31   69 1
  60   32   33 1
  61   32   34 1
  62   32   70 1
  63   32   71 1
  64   33   34 1
  65   33   72 1
  66   34   73 1
  67   34   74 1
  68   35   36 1
  69   35   75 1
  70   35   76 1
  71   36   37 1
  72   36   77 1
  73   36   78 1
  74   37   38 am
  75   37   79 1
  76   38   39 1
  77   38   40 2
  78   39   41 ar
  79   39   42 ar
  80   41   45 ar
  81   42   43 ar
  82   42   80 1
  83   43   44 ar
  84   43   81 1
  85   44   45 ar
  86   44   82 1
  87   45   46 1
  88   46   83 1
  89   46   84 1
  90   46   85 1

#	End of record

