#	Name: ASD02198499
#	Creating user name:	WinNT
#	Creation time:	15. 06. 2019 20:19

#	Modifying user name:	WinNT
#	Modification time:	15. 06. 2019 20:19

#	Program:	/corina/corina34_cracker 3.40 0067  02.08.2006

@<TRIPOS>MOLECULE
ASD02198499
  43   46    0    0    0
SMALL
NO_CHARGES


@<TRIPOS>ATOM
   1 C1             0.0919     1.0163    -0.1334 C.2     
   2 C2             0.3458    -0.3137    -0.2178 C.2     
   3 N3             1.6158    -0.7783    -0.2196 N.pl3   
   4 N4             2.6442    -0.0168    -0.1443 N.2     
   5 C5             2.5401     1.2917    -0.0584 C.2     
   6 C6             1.1978     1.8961    -0.0484 C.2     
   7 C7             1.8175    -2.1597    -0.3077 C.ar    
   8 C8             3.2962    -4.0315    -0.5540 C.ar    
   9 C9             2.2164    -4.8923    -0.4819 C.ar    
  10 C10            0.9367    -4.3901    -0.3285 C.ar    
  11 C11            0.7341    -3.0271    -0.2413 C.ar    
  12 C12            3.7472     2.1386     0.0268 C.2     
  13 N13            4.8828     1.8647     0.7361 N.pl3   
  14 N14            5.7742     2.9271     0.5411 N.2     
  15 C15            5.2129     3.8081    -0.2482 C.2     
  16 C16            3.9427     3.3505    -0.5985 C.2     
  17 C17            5.1136     0.7259     1.5182 C.ar    
  18 C18            4.1122     0.2357     2.3460 C.ar    
  19 O19            1.0446     3.1058     0.0294 O.2     
  20 C20            6.3424     0.0813     1.4631 C.ar    
  21 C21            6.5669    -1.0413     2.2356 C.ar    
  22 C22            5.5696    -1.5237     3.0632 C.ar    
  23 C23            4.3429    -0.8874     3.1160 C.ar    
  24 C24            3.1006    -2.6670    -0.4675 C.ar    
  25 S25            4.9242    -4.6766    -0.7494 S.o     
  26 O26            4.8096    -5.9954    -0.2330 O.2     
  27 C27            5.1214    -4.7477    -2.5512 C.3     
  28 H28           -0.9207     1.3919    -0.1357 H       
  29 H29           -0.4768    -1.0104    -0.2839 H       
  30 H30            2.3725    -5.9590    -0.5457 H       
  31 H31            0.0955    -5.0651    -0.2725 H       
  32 H32           -0.2653    -2.6357    -0.1212 H       
  33 H33            5.6609     4.7343    -0.5766 H       
  34 H34            3.2371     3.8577    -1.2398 H       
  35 H35            3.1541     0.7324     2.3880 H       
  36 H36            7.1216     0.4574     0.8167 H       
  37 H37            7.5222    -1.5433     2.1929 H       
  38 H38            5.7474    -2.4020     3.6660 H       
  39 H39            3.5661    -1.2664     3.7636 H       
  40 H40            3.9444    -1.9953    -0.5243 H       
  41 H41            5.0147    -3.7463    -2.9683 H       
  42 H42            6.1096    -5.1388    -2.7934 H       
  43 H43            4.3584    -5.4009    -2.9748 H       
@<TRIPOS>BOND
   1    1    2 2
   2    1    6 1
   3    1   28 1
   4    2    3 1
   5    2   29 1
   6    3    4 1
   7    3    7 1
   8    4    5 2
   9    5    6 1
  10    5   12 1
  11    6   19 2
  12    7   24 ar
  13    7   11 ar
  14    8    9 ar
  15    8   25 1
  16    8   24 ar
  17    9   10 ar
  18    9   30 1
  19   10   11 ar
  20   10   31 1
  21   11   32 1
  22   12   13 1
  23   12   16 2
  24   13   14 1
  25   13   17 1
  26   14   15 2
  27   15   16 1
  28   15   33 1
  29   16   34 1
  30   17   20 ar
  31   17   18 ar
  32   18   23 ar
  33   18   35 1
  34   20   21 ar
  35   20   36 1
  36   21   22 ar
  37   21   37 1
  38   22   23 ar
  39   22   38 1
  40   23   39 1
  41   24   40 1
  42   25   27 1
  43   25   26 2
  44   27   41 1
  45   27   42 1
  46   27   43 1

#	End of record

