#	Name: ASD09740360
#	Creating user name:	WinNT
#	Creation time:	15. 06. 2019 21:23

#	Modifying user name:	WinNT
#	Modification time:	15. 06. 2019 21:23

#	Program:	/corina/corina34_cracker 3.40 0067  02.08.2006

@<TRIPOS>MOLECULE
ASD09740360
  54   57    0    0    0
SMALL
NO_CHARGES


@<TRIPOS>ATOM
   1 O1            -0.0173     1.4248     0.0099 O.3     
   2 O2             0.0898     4.1745     0.0232 O.3     
   3 N3             6.1177    -0.4650    -0.0592 N.2     
   4 O4             4.9483    -0.1442    -0.0461 O.3     
   5 C5             6.8811     0.5976    -0.0614 C.2     
   6 N6             6.0705     1.6762    -0.0480 N.2     
   7 C7             4.8413     1.1938    -0.0384 C.2     
   8 C8             3.5890     1.9764    -0.0221 C.ar    
   9 C9             8.3655     0.6136    -0.0751 C.ar    
  10 C10            9.0749    -0.5812    -0.0878 C.ar    
  11 C11           10.4628    -0.5739    -0.1065 C.ar    
  12 C12           11.1360     0.6474    -0.1035 C.ar    
  13 C13           10.4317     1.8343    -0.0879 C.ar    
  14 C14            9.0512     1.8275    -0.0810 C.ar    
  15 C15            2.3547     1.3221    -0.0133 C.ar    
  16 C16            1.1859     2.0586     0.0018 C.ar    
  17 C17            1.2400     3.4515     0.0083 C.ar    
  18 C18            2.4659     4.1011    -0.0008 C.ar    
  19 C19            3.6361     3.3717    -0.0102 C.ar    
  20 C20            0.2182     5.5977     0.0291 C.3     
  21 C21           -1.1726     6.2352     0.0459 C.3     
  22 C22            0.0021    -0.0041     0.0020 C.3     
  23 C23           -1.4333    -0.5336     0.0129 C.3     
  24 N24           10.9700    -1.8794    -0.1340 N.3     
  25 C25            9.8968    -2.7924     0.3161 C.3     
  26 C26            8.6139    -2.0249    -0.0778 C.3     
  27 C27           12.1578    -2.0008     0.7217 C.3     
  28 C28           12.5342    -3.4768     0.8654 C.3     
  29 O29           12.9302    -3.9934    -0.4068 O.3     
  30 H30           12.2158     0.6646    -0.1130 H       
  31 H31           10.9638     2.7742    -0.0854 H       
  32 H32            8.5046     2.7589    -0.0712 H       
  33 H33            2.3142     0.2428    -0.0187 H       
  34 H34            2.5037     5.1804     0.0039 H       
  35 H35            4.5891     3.8799    -0.0173 H       
  36 H36            0.7712     5.9090     0.9153 H       
  37 H37            0.7539     5.9179    -0.8646 H       
  38 H38           -1.7256     5.9239    -0.8403 H       
  39 H39           -1.7083     5.9150     0.9395 H       
  40 H40           -1.0747     7.3208     0.0504 H       
  41 H41            0.5123    -0.3556    -0.8948 H       
  42 H42            0.5293    -0.3651     0.8851 H       
  43 H43           -1.9435    -0.1821     0.9097 H       
  44 H44           -1.9605    -0.1726    -0.8702 H       
  45 H45           -1.4185    -1.6235     0.0069 H       
  46 H46            9.9541    -3.7455    -0.2096 H       
  47 H47            9.9427    -2.9411     1.3950 H       
  48 H48            7.8308    -2.1749     0.6653 H       
  49 H49            8.2715    -2.3276    -1.0674 H       
  50 H50           12.9876    -1.4565     0.2708 H       
  51 H51           11.9413    -1.5837     1.7052 H       
  52 H52           13.3599    -3.5743     1.5702 H       
  53 H53           11.6744    -4.0369     1.2332 H       
  54 H54           13.1831    -4.9266    -0.3909 H       
@<TRIPOS>BOND
   1    1   22 1
   2    1   16 1
   3    2   20 1
   4    2   17 1
   5    3    4 1
   6    3    5 2
   7    4    7 1
   8    5    6 1
   9    5    9 1
  10    6    7 2
  11    7    8 1
  12    8   15 ar
  13    8   19 ar
  14    9   10 ar
  15    9   14 ar
  16   10   11 ar
  17   10   26 1
  18   11   12 ar
  19   11   24 1
  20   12   13 ar
  21   12   30 1
  22   13   14 ar
  23   13   31 1
  24   14   32 1
  25   15   16 ar
  26   15   33 1
  27   16   17 ar
  28   17   18 ar
  29   18   19 ar
  30   18   34 1
  31   19   35 1
  32   20   21 1
  33   20   36 1
  34   20   37 1
  35   21   38 1
  36   21   39 1
  37   21   40 1
  38   22   23 1
  39   22   41 1
  40   22   42 1
  41   23   43 1
  42   23   44 1
  43   23   45 1
  44   24   25 1
  45   24   27 1
  46   25   26 1
  47   25   46 1
  48   25   47 1
  49   26   48 1
  50   26   49 1
  51   27   28 1
  52   27   50 1
  53   27   51 1
  54   28   29 1
  55   28   52 1
  56   28   53 1
  57   29   54 1

#	End of record

