#	Name: ASD04590113
#	Creating user name:	WinNT
#	Creation time:	15. 06. 2019 20:50

#	Modifying user name:	WinNT
#	Modification time:	15. 06. 2019 20:50

#	Program:	/corina/corina34_cracker 3.40 0067  02.08.2006

@<TRIPOS>MOLECULE
ASD04590113
  50   53    0    0    0
SMALL
NO_CHARGES


@<TRIPOS>ATOM
   1 N1            -0.7820     1.0462     0.2725 N.pl3   
   2 N2            -0.1674    -0.0553     0.0409 N.2     
   3 C3            -0.6993    -1.0395     0.7388 C.2     
   4 C4            -1.7998    -0.4434     1.5068 C.2     
   5 C5            -1.7858     0.8773     1.1559 C.2     
   6 C6            -0.2755    -2.4525     0.7460 C.2     
   7 O7            -0.8608    -3.2594     1.4425 O.2     
   8 N8             0.7604    -2.8493    -0.0195 N.am    
   9 C9             1.2254    -4.1682     0.0601 C.ar    
  10 C10            0.3294    -5.2090     0.2663 C.ar    
  11 C11            0.7875    -6.5090     0.3448 C.ar    
  12 C12            2.1445    -6.7759     0.2170 C.ar    
  13 C13            3.0405    -5.7350     0.0102 C.ar    
  14 C14            2.5816    -4.4355    -0.0730 C.ar    
  15 C15           -2.7202    -1.1225     2.4514 C.ar    
  16 C16           -2.2274    -1.6741     3.6341 C.ar    
  17 C17           -4.0807    -1.2065     2.1632 C.ar    
  18 C18           -4.9331    -1.8393     3.0453 C.ar    
  19 C19           -4.4390    -2.3899     4.2152 C.ar    
  20 C20           -3.0889    -2.3051     4.5097 C.ar    
  21 N21            2.6089    -8.0931     0.2969 N.3     
  22 C22            4.0686    -8.1476     0.1359 C.3     
  23 C23            4.5446    -9.5919     0.3086 C.3     
  24 N24            3.8762   -10.4471    -0.6821 N.3     
  25 C25            2.4164   -10.3926    -0.5211 C.3     
  26 C26            1.9404    -8.9483    -0.6938 C.3     
  27 C27            4.3638   -11.8302    -0.5982 C.3     
  28 Cl28          -5.5170    -3.1839     5.3202 Cl      
  29 Cl29          -0.5347    -1.5682     4.0041 Cl      
  30 H30           -0.5507     1.8958    -0.1343 H       
  31 H31           -2.4545     1.6435     1.5193 H       
  32 H32            1.1840    -2.2214    -0.6255 H       
  33 H33           -0.7258    -5.0014     0.3657 H       
  34 H34            0.0908    -7.3183     0.5059 H       
  35 H35            4.0957    -5.9425    -0.0892 H       
  36 H36            3.2778    -3.6265    -0.2376 H       
  37 H37           -4.4678    -0.7767     1.2512 H       
  38 H38           -5.9878    -1.9047     2.8224 H       
  39 H39           -2.7083    -2.7363     5.4238 H       
  40 H40            4.3383    -7.7923    -0.8586 H       
  41 H41            4.5413    -7.5165     0.8885 H       
  42 H42            5.6236    -9.6393     0.1609 H       
  43 H43            4.2991    -9.9382     1.3125 H       
  44 H44            1.9438   -11.0237    -1.2737 H       
  45 H45            2.1468   -10.7479     0.4734 H       
  46 H46            0.8615    -8.9009    -0.5461 H       
  47 H47            2.1859    -8.6020    -1.6978 H       
  48 H48            4.1634   -12.2263     0.3973 H       
  49 H49            3.8527   -12.4414    -1.3420 H       
  50 H50            5.4370   -11.8492    -0.7876 H       
@<TRIPOS>BOND
   1    1    2 1
   2    1    5 1
   3    1   30 1
   4    2    3 2
   5    3    4 1
   6    3    6 1
   7    4    5 2
   8    4   15 1
   9    5   31 1
  10    6    7 2
  11    6    8 am
  12    8    9 1
  13    8   32 1
  14    9   10 ar
  15    9   14 ar
  16   10   11 ar
  17   10   33 1
  18   11   12 ar
  19   11   34 1
  20   12   13 ar
  21   12   21 1
  22   13   14 ar
  23   13   35 1
  24   14   36 1
  25   15   16 ar
  26   15   17 ar
  27   16   29 1
  28   16   20 ar
  29   17   18 ar
  30   17   37 1
  31   18   19 ar
  32   18   38 1
  33   19   20 ar
  34   19   28 1
  35   20   39 1
  36   21   22 1
  37   21   26 1
  38   22   23 1
  39   22   40 1
  40   22   41 1
  41   23   24 1
  42   23   42 1
  43   23   43 1
  44   24   25 1
  45   24   27 1
  46   25   26 1
  47   25   44 1
  48   25   45 1
  49   26   46 1
  50   26   47 1
  51   27   48 1
  52   27   49 1
  53   27   50 1

#	End of record

