#	Name: ASD01913189
#	Creating user name:	WinNT
#	Creation time:	15. 06. 2019 20:01

#	Modifying user name:	WinNT
#	Modification time:	15. 06. 2019 20:01

#	Program:	/corina/corina34_cracker 3.40 0067  02.08.2006

@<TRIPOS>MOLECULE
ASD01913189
  58   62    0    0    0
SMALL
NO_CHARGES


@<TRIPOS>ATOM
   1 C1            -0.3224     1.5597     0.3808 C.3     
   2 N2            -0.7054     0.1441     0.4144 N.am    
   3 C3            -0.3189    -0.6321     1.6044 C.3     
   4 C4             1.2073    -0.6872     1.6534 C.3     
   5 C5             1.8004     0.6798     1.4352 C.ar    
   6 C6             3.1095     0.8881     1.8529 C.ar    
   7 C7             3.7161     2.1137     1.6752 C.ar    
   8 C8             3.0183     3.1459     1.0756 C.ar    
   9 C9             1.7175     2.9431     0.6633 C.ar    
  10 C10            1.1045     1.7108     0.8452 C.ar    
  11 C11           -0.4491     2.0802    -1.0277 C.ar    
  12 C12           -1.3065     3.1291    -1.3025 C.ar    
  13 C13           -1.4228     3.6066    -2.5945 C.ar    
  14 C14           -0.6813     3.0354    -3.6118 C.ar    
  15 C15            0.1768     1.9871    -3.3369 C.ar    
  16 C16            0.2963     1.5125    -2.0441 C.ar    
  17 C17           -1.3839    -0.4230    -0.6027 C.2     
  18 C18           -1.6316    -1.8785    -0.6041 C.ar    
  19 C19           -2.7571    -2.3935    -1.2459 C.ar    
  20 C20           -2.9852    -3.7678    -1.2442 C.ar    
  21 C21           -2.0796    -4.6240    -0.5961 C.ar    
  22 C22           -0.9632    -4.1001     0.0397 C.ar    
  23 C23           -0.7343    -2.7412     0.0333 C.ar    
  24 O24           -1.7921     0.2640    -1.5190 O.2     
  25 C25           -4.1388    -4.3057    -1.9004 C.1     
  26 C26           -5.0845    -4.7466    -2.4384 C.1     
  27 C27           -6.2381    -5.2845    -3.0946 C.ar    
  28 C28           -6.4596    -6.6645    -3.0884 C.ar    
  29 C29           -7.5783    -7.1675    -3.7266 C.ar    
  30 C30           -8.4420    -6.2777    -4.3519 C.ar    
  31 C31           -8.1631    -4.9238    -4.3201 C.ar    
  32 N32           -7.0938    -4.4670    -3.7010 N.ar    
  33 O33           -2.2967    -5.9626    -0.5913 O.3     
  34 C34           -1.3350    -6.7734     0.0868 C.3     
  35 H35           -0.9799     2.1290     1.0378 H       
  36 H36           -0.6993    -0.1448     2.5021 H       
  37 H37           -0.7223    -1.6422     1.5330 H       
  38 H38            1.5213    -1.0631     2.6271 H       
  39 H39            1.5667    -1.3621     0.8765 H       
  40 H40            3.6564     0.0831     2.3212 H       
  41 H41            4.7334     2.2671     2.0037 H       
  42 H42            3.4895     4.1069     0.9310 H       
  43 H43            1.1718     3.7493     0.1957 H       
  44 H44           -1.8859     3.5753    -0.5077 H       
  45 H45           -2.0933     4.4256    -2.8093 H       
  46 H46           -0.7727     3.4079    -4.6214 H       
  47 H47            0.7559     1.5406    -4.1317 H       
  48 H48            0.9695     0.6959    -1.8287 H       
  49 H49           -3.4495    -1.7297    -1.7420 H       
  50 H50           -0.2686    -4.7602     0.5377 H       
  51 H51            0.1393    -2.3405     0.5260 H       
  52 H52           -5.7669    -7.3283    -2.5925 H       
  53 H53           -7.7759    -8.2292    -3.7390 H       
  54 H54           -9.3239    -6.6402    -4.8590 H       
  55 H55           -8.8338    -4.2305    -4.8058 H       
  56 H56           -0.3561    -6.6371    -0.3729 H       
  57 H57           -1.2879    -6.4806     1.1356 H       
  58 H58           -1.6275    -7.8209     0.0147 H       
@<TRIPOS>BOND
   1    1    2 1
   2    1   10 1
   3    1   11 1
   4    1   35 1
   5    2    3 1
   6    2   17 am
   7    3    4 1
   8    3   36 1
   9    3   37 1
  10    4    5 1
  11    4   38 1
  12    4   39 1
  13    5    6 ar
  14    5   10 ar
  15    6    7 ar
  16    6   40 1
  17    7    8 ar
  18    7   41 1
  19    8    9 ar
  20    8   42 1
  21    9   10 ar
  22    9   43 1
  23   11   12 ar
  24   11   16 ar
  25   12   13 ar
  26   12   44 1
  27   13   14 ar
  28   13   45 1
  29   14   15 ar
  30   14   46 1
  31   15   16 ar
  32   15   47 1
  33   16   48 1
  34   17   18 1
  35   17   24 2
  36   18   19 ar
  37   18   23 ar
  38   19   20 ar
  39   19   49 1
  40   20   21 ar
  41   20   25 1
  42   21   22 ar
  43   21   33 1
  44   22   23 ar
  45   22   50 1
  46   23   51 1
  47   25   26 3
  48   26   27 1
  49   27   28 ar
  50   27   32 ar
  51   28   29 ar
  52   28   52 1
  53   29   30 ar
  54   29   53 1
  55   30   31 ar
  56   30   54 1
  57   31   32 ar
  58   31   55 1
  59   33   34 1
  60   34   56 1
  61   34   57 1
  62   34   58 1

#	End of record

