#	Name: ASD01883988
#	Creating user name:	WinNT
#	Creation time:	15. 06. 2019 19:47

#	Modifying user name:	WinNT
#	Modification time:	15. 06. 2019 19:47

#	Program:	/corina/corina34_cracker 3.40 0067  02.08.2006

@<TRIPOS>MOLECULE
ASD01883988
  49   53    0    0    0
SMALL
NO_CHARGES


@<TRIPOS>ATOM
   1 F1            -2.8016     0.8278    -1.8551 F       
   2 C2            -1.8599     0.9218    -0.8248 C.3     
   3 F3            -1.3004    -0.3384    -0.5880 F       
   4 C4            -0.7569     1.9016    -1.2298 C.3     
   5 N5            -0.0074     1.3522    -2.3675 N.3     
   6 C6            -0.8174     1.3738    -3.5905 C.3     
   7 C7             0.0494     0.8947    -4.7622 C.3     
   8 O8             1.1204     1.8307    -4.9261 O.3     
   9 C9             1.7530     2.2365    -3.7921 C.ar    
  10 C10            2.9688     2.8900    -3.9025 C.ar    
  11 C11            3.6114     3.3093    -2.7289 C.ar    
  12 C12            3.0026     3.0527    -1.5011 C.ar    
  13 N13            1.8470     2.4264    -1.4403 N.ar    
  14 C14            1.2069     2.0108    -2.5292 C.ar    
  15 C15            4.9102     4.0098    -2.7921 C.2     
  16 C16            6.0020     3.6659    -3.5734 C.2     
  17 Cl17           6.0862     2.3236    -4.6711 Cl      
  18 N18            6.9754     4.5438    -3.3367 N.2     
  19 C19            6.5697     5.4155    -2.4564 C.2     
  20 C20            7.2567     6.5801    -1.8650 C.2     
  21 O21            8.3167     6.9877    -2.3012 O.2     
  22 N22            6.6451     7.1712    -0.8121 N.am    
  23 C23            7.1540     8.4549    -0.3227 C.3     
  24 C24            6.4471     9.5967    -1.0559 C.3     
  25 C25            5.5784    10.5408    -0.2224 C.3     
  26 C26            6.9236    11.0221    -0.7698 C.3     
  27 C27            5.4937     6.5673    -0.1507 C.3     
  28 C28            4.5196     5.9305    -1.1425 C.3     
  29 N29            5.2685     5.1197    -2.1021 N.pl3   
  30 H30           -2.3480     1.2788     0.0821 H       
  31 H31           -1.2037     2.8540    -1.5150 H       
  32 H32           -0.0804     2.0549    -0.3890 H       
  33 H33           -1.6739     0.7098    -3.4736 H       
  34 H34           -1.1627     2.3897    -3.7825 H       
  35 H35            0.4533    -0.0936    -4.5426 H       
  36 H36           -0.5492     0.8556    -5.6723 H       
  37 H37            3.4122     3.0722    -4.8703 H       
  38 H38            3.4854     3.3714    -0.5892 H       
  39 H39            6.9634     8.5372     0.7473 H       
  40 H40            8.2268     8.5143    -0.5063 H       
  41 H41            6.1159     9.3707    -2.0695 H       
  42 H42            4.6753    10.9361    -0.6874 H       
  43 H43            5.5105    10.3485     0.8484 H       
  44 H44            7.7407    11.1465    -0.0591 H       
  45 H45            6.9055    11.7340    -1.5949 H       
  46 H46            5.8453     5.8010     0.5401 H       
  47 H47            4.9684     7.3363     0.4156 H       
  48 H48            3.8119     5.3001    -0.6042 H       
  49 H49            3.9794     6.7128    -1.6757 H       
@<TRIPOS>BOND
   1    1    2 1
   2    2    3 1
   3    2    4 1
   4    2   30 1
   5    4    5 1
   6    4   31 1
   7    4   32 1
   8    5   14 1
   9    5    6 1
  10    6    7 1
  11    6   33 1
  12    6   34 1
  13    7    8 1
  14    7   35 1
  15    7   36 1
  16    8    9 1
  17    9   14 ar
  18    9   10 ar
  19   10   11 ar
  20   10   37 1
  21   11   12 ar
  22   11   15 1
  23   12   13 ar
  24   12   38 1
  25   13   14 ar
  26   15   29 1
  27   15   16 2
  28   16   17 1
  29   16   18 1
  30   18   19 2
  31   19   29 1
  32   19   20 1
  33   20   21 2
  34   20   22 am
  35   22   23 1
  36   22   27 1
  37   23   24 1
  38   23   39 1
  39   23   40 1
  40   24   26 1
  41   24   25 1
  42   24   41 1
  43   25   26 1
  44   25   42 1
  45   25   43 1
  46   26   44 1
  47   26   45 1
  48   27   28 1
  49   27   46 1
  50   27   47 1
  51   28   29 1
  52   28   48 1
  53   28   49 1

#	End of record

