#	Name: ASD02120004
#	Creating user name:	WinNT
#	Creation time:	15. 06. 2019 20:18

#	Modifying user name:	WinNT
#	Modification time:	15. 06. 2019 20:18

#	Program:	/corina/corina34_cracker 3.40 0067  02.08.2006

@<TRIPOS>MOLECULE
ASD02120004
  74   77    0    0    0
SMALL
NO_CHARGES


@<TRIPOS>ATOM
   1 C1            -0.7241     1.1371    -0.2098 C.3     
   2 N2            -0.4903    -0.2934     0.0032 N.am    
   3 C3            -0.1303    -1.0787    -1.0313 C.2     
   4 O4             0.0001    -0.6012    -2.1385 O.2     
   5 C5             0.1102    -2.5502    -0.8123 C.3     
   6 N6             0.4869    -3.1777    -2.0814 N.am    
   7 C7             1.2181    -4.3098    -2.0825 C.2     
   8 O8             1.5643    -4.8091    -1.0329 O.2     
   9 C9             1.6056    -4.9553    -3.3880 C.3     
  10 N10            2.3915    -6.1626    -3.1215 N.am    
  11 C11            3.2551    -6.6227    -4.0483 C.2     
  12 O12            3.3819    -6.0360    -5.1050 O.2     
  13 C13            4.0492    -7.8426    -3.7790 C.ar    
  14 C14            4.9435    -8.3190    -4.7390 C.ar    
  15 C15            5.6828    -9.4544    -4.4888 C.ar    
  16 C16            5.5372   -10.1287    -3.2745 C.ar    
  17 C17            4.6423    -9.6518    -2.3143 C.ar    
  18 C18            3.9076    -8.5130    -2.5630 C.ar    
  19 C19            6.3304   -11.3481    -3.0056 C.2     
  20 O20            6.5336   -11.7006    -1.8605 O.2     
  21 C21            6.8755   -12.1372    -4.1290 C.ar    
  22 C22            7.9766   -12.9738    -3.9299 C.ar    
  23 C23            8.4799   -13.7081    -4.9832 C.ar    
  24 C24            7.8973   -13.6172    -6.2353 C.ar    
  25 C25            6.8066   -12.7902    -6.4399 C.ar    
  26 C26            6.2889   -12.0549    -5.3942 C.ar    
  27 C27            0.3427    -5.3302    -4.1662 C.3     
  28 C28            0.7338    -5.8707    -5.5431 C.3     
  29 C29           -0.5183    -6.3613    -6.2728 C.3     
  30 C30           -0.1273    -6.9018    -7.6497 C.3     
  31 C31            0.5352    -5.7894    -8.4649 C.3     
  32 C32            1.7873    -5.2988    -7.7352 C.3     
  33 C33            1.3963    -4.7583    -6.3583 C.3     
  34 C34           -1.1677    -3.2022    -0.2805 C.3     
  35 C35           -0.8891    -4.6677     0.0595 C.3     
  36 C36           -2.0153    -5.4663     0.7188 C.3     
  37 C37           -1.6407    -5.7337    -0.7403 C.3     
  38 H38            0.1863     1.6015    -0.5886 H       
  39 H39           -1.5281     1.2700    -0.9336 H       
  40 H40           -1.0043     1.6039     0.7345 H       
  41 H41           -0.5946    -0.6754     0.8887 H       
  42 H42            0.9142    -2.6832    -0.0885 H       
  43 H43            0.2100    -2.7783    -2.9209 H       
  44 H44            2.2008    -4.2568    -3.9761 H       
  45 H45            2.2902    -6.6308    -2.2781 H       
  46 H46            5.0558    -7.7976    -5.6781 H       
  47 H47            6.3746    -9.8231    -5.2317 H       
  48 H48            4.5294   -10.1729    -1.3751 H       
  49 H49            3.2154    -8.1441    -1.8205 H       
  50 H50            8.4326   -13.0451    -2.9535 H       
  51 H51            9.3310   -14.3552    -4.8307 H       
  52 H52            8.2958   -14.1942    -7.0566 H       
  53 H53            6.3571   -12.7239    -7.4196 H       
  54 H54            5.4378   -11.4098    -5.5553 H       
  55 H55           -0.2078    -6.0951    -3.6185 H       
  56 H56           -0.2849    -4.4473    -4.2873 H       
  57 H57            1.4324    -6.6988    -5.4233 H       
  58 H58           -0.9903    -7.1537    -5.6920 H       
  59 H59           -1.2169    -5.5332    -6.3925 H       
  60 H60            0.5713    -7.7298    -7.5299 H       
  61 H61           -1.0193    -7.2513    -8.1695 H       
  62 H62            0.8138    -6.1745    -9.4458 H       
  63 H63           -0.1634    -4.9613    -8.5846 H       
  64 H64            2.4859    -6.1269    -7.6155 H       
  65 H65            2.2593    -4.5064    -8.3160 H       
  66 H66            0.6976    -3.9303    -6.4780 H       
  67 H67            2.2883    -4.4088    -5.8384 H       
  68 H68           -1.4973    -2.6774     0.6162 H       
  69 H69           -1.9470    -3.1474    -1.0406 H       
  70 H70            0.1329    -4.8936     0.3637 H       
  71 H71           -1.7342    -6.2180     1.4565 H       
  72 H72           -2.9547    -4.9477     0.9103 H       
  73 H73           -2.3336    -5.3909    -1.5087 H       
  74 H74           -1.1131    -6.6612    -0.9626 H       
@<TRIPOS>BOND
   1    1    2 1
   2    1   38 1
   3    1   39 1
   4    1   40 1
   5    2    3 am
   6    2   41 1
   7    3    4 2
   8    3    5 1
   9    5    6 1
  10    5   34 1
  11    5   42 1
  12    6    7 am
  13    6   43 1
  14    7    8 2
  15    7    9 1
  16    9   10 1
  17    9   27 1
  18    9   44 1
  19   10   11 am
  20   10   45 1
  21   11   12 2
  22   11   13 1
  23   13   14 ar
  24   13   18 ar
  25   14   15 ar
  26   14   46 1
  27   15   16 ar
  28   15   47 1
  29   16   17 ar
  30   16   19 1
  31   17   18 ar
  32   17   48 1
  33   18   49 1
  34   19   20 2
  35   19   21 1
  36   21   22 ar
  37   21   26 ar
  38   22   23 ar
  39   22   50 1
  40   23   24 ar
  41   23   51 1
  42   24   25 ar
  43   24   52 1
  44   25   26 ar
  45   25   53 1
  46   26   54 1
  47   27   28 1
  48   27   55 1
  49   27   56 1
  50   28   29 1
  51   28   33 1
  52   28   57 1
  53   29   30 1
  54   29   58 1
  55   29   59 1
  56   30   31 1
  57   30   60 1
  58   30   61 1
  59   31   32 1
  60   31   62 1
  61   31   63 1
  62   32   33 1
  63   32   64 1
  64   32   65 1
  65   33   66 1
  66   33   67 1
  67   34   35 1
  68   34   68 1
  69   34   69 1
  70   35   36 1
  71   35   37 1
  72   35   70 1
  73   36   37 1
  74   36   71 1
  75   36   72 1
  76   37   73 1
  77   37   74 1

#	End of record

