#	Name: ASD02030083
#	Creating user name:	WinNT
#	Creation time:	15. 06. 2019 20:14

#	Modifying user name:	WinNT
#	Modification time:	15. 06. 2019 20:14

#	Program:	/corina/corina34_cracker 3.40 0067  02.08.2006

@<TRIPOS>MOLECULE
ASD02030083
  57   60    0    0    0
SMALL
NO_CHARGES


@<TRIPOS>ATOM
   1 C1             0.6232     0.3375     1.2567 C.ar    
   2 C2             0.0202    -0.0595     0.0760 C.ar    
   3 C3             0.5907     0.2523    -1.1423 C.ar    
   4 C4             1.7794     0.9693    -1.1981 C.ar    
   5 C5             2.4019     1.3782    -0.0136 C.ar    
   6 C6             1.8135     1.0567     1.2260 C.ar    
   7 C7             3.6648     2.1396    -0.0620 C.2     
   8 C8             4.9546     1.4346     0.0414 C.ar    
   9 C9             6.1512     2.1637     0.1152 C.ar    
  10 C10            7.3602     1.4973     0.2127 C.ar    
  11 C11            4.9896     0.0323     0.0723 C.ar    
  12 O12            3.6412     3.3492    -0.1871 O.2     
  13 O13            2.3354     1.2717    -2.3977 O.3     
  14 C14            6.2033    -0.6255     0.1699 C.ar    
  15 C15            7.3904     0.1032     0.2372 C.ar    
  16 O16            3.8353    -0.6777     0.0069 O.3     
  17 O17            6.1230     3.5199     0.0906 O.3     
  18 C18            8.6865    -0.6052     0.3411 C.2     
  19 N19            9.8350     0.0970     0.4063 N.am    
  20 O20            8.7147    -1.8198     0.3677 O.2     
  21 C21           11.1174    -0.6039     0.5091 C.3     
  22 C22           11.6430    -0.9679    -0.8948 C.3     
  23 C23           12.9903    -0.2252    -1.0237 C.3     
  24 N24           13.4372    -0.0145     0.3774 N.3     
  25 C25           12.1912     0.3282     1.1103 C.3     
  26 C26           14.3678     1.0276     0.4556 C.ar    
  27 C27           14.0159     2.3057     0.0423 C.ar    
  28 C28           15.6419     0.7855     0.9519 C.ar    
  29 C29           16.5596     1.8147     1.0292 C.ar    
  30 C30           16.2088     3.0900     0.6117 C.ar    
  31 C31           14.9348     3.3338     0.1203 C.ar    
  32 O32           17.1128     4.1031     0.6890 O.3     
  33 C33            2.4579     1.4810     2.4866 C.2     
  34 O34            3.5427     2.0267     2.4603 O.2     
  35 O35            1.8422     1.2624     3.6646 O.3     
  36 H36            0.1662     0.0923     2.2041 H       
  37 H37           -0.9037    -0.6179     0.1077 H       
  38 H38            0.1103    -0.0632    -2.0567 H       
  39 H39            8.2817     2.0576     0.2696 H       
  40 H40            1.9836     2.0764    -2.8026 H       
  41 H41            6.2312    -1.7049     0.1937 H       
  42 H42            3.6027    -0.9689    -0.8854 H       
  43 H43            6.0515     3.9277     0.9645 H       
  44 H44            9.8126     1.0666     0.3851 H       
  45 H45           11.0096    -1.5018     1.1176 H       
  46 H46           11.7950    -2.0443    -0.9747 H       
  47 H47           10.9470    -0.6251    -1.6603 H       
  48 H48           13.7117    -0.8375    -1.5648 H       
  49 H49           12.8501     0.7320    -1.5260 H       
  50 H50           11.9260     1.3720     0.9419 H       
  51 H51           12.3109     0.1326     2.1759 H       
  52 H52           13.0240     2.4957    -0.3404 H       
  53 H53           15.9150    -0.2073     1.2778 H       
  54 H54           17.5505     1.6265     1.4152 H       
  55 H55           14.6625     4.3271    -0.2046 H       
  56 H56           17.6562     4.2067    -0.1041 H       
  57 H57            2.3027     1.5575     4.4621 H       
@<TRIPOS>BOND
   1    1    2 ar
   2    1    6 ar
   3    1   36 1
   4    2    3 ar
   5    2   37 1
   6    3    4 ar
   7    3   38 1
   8    4    5 ar
   9    4   13 1
  10    5    6 ar
  11    5    7 1
  12    6   33 1
  13    7    8 1
  14    7   12 2
  15    8    9 ar
  16    8   11 ar
  17    9   10 ar
  18    9   17 1
  19   10   15 ar
  20   10   39 1
  21   11   14 ar
  22   11   16 1
  23   13   40 1
  24   14   15 ar
  25   14   41 1
  26   15   18 1
  27   16   42 1
  28   17   43 1
  29   18   19 am
  30   18   20 2
  31   19   21 1
  32   19   44 1
  33   21   22 1
  34   21   25 1
  35   21   45 1
  36   22   23 1
  37   22   46 1
  38   22   47 1
  39   23   24 1
  40   23   48 1
  41   23   49 1
  42   24   25 1
  43   24   26 1
  44   25   50 1
  45   25   51 1
  46   26   27 ar
  47   26   28 ar
  48   27   31 ar
  49   27   52 1
  50   28   29 ar
  51   28   53 1
  52   29   30 ar
  53   29   54 1
  54   30   31 ar
  55   30   32 1
  56   31   55 1
  57   32   56 1
  58   33   34 2
  59   33   35 1
  60   35   57 1

#	End of record

