#	Name: ASD01520010
#	Creating user name:	WinNT
#	Creation time:	15. 06. 2019 19:21

#	Modifying user name:	WinNT
#	Modification time:	15. 06. 2019 19:21

#	Program:	/corina/corina34_cracker 3.40 0067  02.08.2006

@<TRIPOS>MOLECULE
ASD01520010
  58   57    0    0    0
SMALL
NO_CHARGES


@<TRIPOS>ATOM
   1 C1            -0.0187     1.5258     0.0104 C.3     
   2 C2             0.0021    -0.0041     0.0020 C.3     
   3 C3             0.7182    -0.4975    -1.2568 C.3     
   4 C4             0.7390    -2.0273    -1.2652 C.3     
   5 C5             1.4551    -2.5207    -2.5240 C.3     
   6 C6             1.4758    -4.0506    -2.5324 C.3     
   7 C7             2.1920    -4.5440    -3.7912 C.3     
   8 C8             2.2127    -6.0738    -3.7996 C.3     
   9 C9             2.9289    -6.5673    -5.0584 C.3     
  10 C10            2.9493    -8.0741    -5.0667 C.2     
  11 C11            2.4690    -8.7300    -6.0939 C.2     
  12 C12            2.4894   -10.2369    -6.1022 C.3     
  13 C13            1.0736   -10.7648    -6.3420 C.3     
  14 C14            1.0943   -12.2946    -6.3504 C.3     
  15 C15           -0.3216   -12.8226    -6.5903 C.3     
  16 C16           -0.3008   -14.3524    -6.5987 C.3     
  17 C17           -1.7167   -14.8803    -6.8385 C.3     
  18 C18           -1.6959   -16.4102    -6.8469 C.3     
  19 O19           -3.0183   -16.9033    -7.0709 O.3     
  20 S20           -3.1163   -18.4219    -7.0990 S.o2    
  21 O21           -4.4084   -18.7481    -7.6821 O.co2   
  22 O22           -2.0121   -18.8983    -7.9173 O.co2   
  23 O23           -3.0094   -18.8746    -5.7207 O.co2   
  24 H24            1.0039     1.9031     0.0027 H       
  25 H25           -0.5459     1.8868    -0.8726 H       
  26 H26           -0.5289     1.8773     0.9072 H       
  27 H27            0.5293    -0.3651     0.8851 H       
  28 H28           -1.0205    -0.3814     0.0098 H       
  29 H29            0.1910    -0.1364    -2.1398 H       
  30 H30            1.7408    -0.1202    -1.2645 H       
  31 H31            1.2661    -2.3884    -0.3821 H       
  32 H32           -0.2836    -2.4046    -1.2575 H       
  33 H33            0.9279    -2.1597    -3.4071 H       
  34 H34            2.4777    -2.1435    -2.5317 H       
  35 H35            2.0030    -4.4117    -1.6494 H       
  36 H36            0.4533    -4.4279    -2.5247 H       
  37 H37            1.6648    -4.1829    -4.6743 H       
  38 H38            3.2146    -4.1667    -3.7990 H       
  39 H39            2.7399    -6.4349    -2.9166 H       
  40 H40            1.1901    -6.4511    -3.7919 H       
  41 H41            2.4017    -6.2062    -5.9415 H       
  42 H42            3.9515    -6.1900    -5.0662 H       
  43 H43            3.3599    -8.6132    -4.2258 H       
  44 H44            2.0583    -8.1909    -6.9348 H       
  45 H45            3.1473   -10.5869    -6.8977 H       
  46 H46            2.8550   -10.6006    -5.1419 H       
  47 H47            0.4157   -10.4147    -5.5466 H       
  48 H48            0.7080   -10.4011    -7.3023 H       
  49 H49            1.7522   -12.6447    -7.1459 H       
  50 H50            1.4599   -12.6583    -5.3901 H       
  51 H51           -0.9794   -12.4725    -5.7948 H       
  52 H52           -0.6871   -12.4589    -7.5506 H       
  53 H53            0.3571   -14.7025    -7.3941 H       
  54 H54            0.0648   -14.7161    -5.6384 H       
  55 H55           -2.3746   -14.5303    -6.0431 H       
  56 H56           -2.0823   -14.5167    -7.7988 H       
  57 H57           -1.0380   -16.7603    -7.6424 H       
  58 H58           -1.3303   -16.7739    -5.8866 H       
@<TRIPOS>BOND
   1    1    2 1
   2    1   24 1
   3    1   25 1
   4    1   26 1
   5    2    3 1
   6    2   27 1
   7    2   28 1
   8    3    4 1
   9    3   29 1
  10    3   30 1
  11    4    5 1
  12    4   31 1
  13    4   32 1
  14    5    6 1
  15    5   33 1
  16    5   34 1
  17    6    7 1
  18    6   35 1
  19    6   36 1
  20    7    8 1
  21    7   37 1
  22    7   38 1
  23    8    9 1
  24    8   39 1
  25    8   40 1
  26    9   10 1
  27    9   41 1
  28    9   42 1
  29   10   11 2
  30   10   43 1
  31   11   12 1
  32   11   44 1
  33   12   13 1
  34   12   45 1
  35   12   46 1
  36   13   14 1
  37   13   47 1
  38   13   48 1
  39   14   15 1
  40   14   49 1
  41   14   50 1
  42   15   16 1
  43   15   51 1
  44   15   52 1
  45   16   17 1
  46   16   53 1
  47   16   54 1
  48   17   18 1
  49   17   55 1
  50   17   56 1
  51   18   19 1
  52   18   57 1
  53   18   58 1
  54   19   20 1
  55   20   21 ar
  56   20   22 ar
  57   20   23 ar

#	End of record

