#	Name: ASD04590322
#	Creating user name:	WinNT
#	Creation time:	15. 06. 2019 20:50

#	Modifying user name:	WinNT
#	Modification time:	15. 06. 2019 20:50

#	Program:	/corina/corina34_cracker 3.40 0067  02.08.2006

@<TRIPOS>MOLECULE
ASD04590322
  51   55    0    0    0
SMALL
NO_CHARGES


@<TRIPOS>ATOM
   1 C1            -0.0167     1.3834     0.0096 C.ar    
   2 C2             0.0021    -0.0041     0.0020 C.ar    
   3 C3             1.1863    -0.6848    -0.0125 C.ar    
   4 C4             2.3948     0.0191    -0.0203 C.ar    
   5 C5             2.3756     1.4250    -0.0131 C.ar    
   6 C6             1.1624     2.0987     0.0022 C.ar    
   7 N7             3.6952    -0.3636    -0.0349 N.2     
   8 C8             4.4665     0.6967    -0.0371 C.2     
   9 N9             3.6970     1.8290    -0.0239 N.pl3   
  10 C10            5.9437     0.6731    -0.0516 C.2     
  11 C11            6.7566    -0.4840    -0.0658 C.2     
  12 C12            8.0504    -0.0799    -0.0770 C.2     
  13 N13            8.0626     1.2789    -0.0702 N.pl3   
  14 N14            6.7358     1.7273    -0.0593 N.2     
  15 N15            6.3044    -1.8133    -0.0672 N.am    
  16 C16            7.1924    -2.8271    -0.0816 C.2     
  17 C17            6.7164    -4.2266    -0.0831 C.ar    
  18 O18            8.3849    -2.5906    -0.0933 O.2     
  19 C19            7.1822    -6.5827    -0.1050 C.ar    
  20 C20            5.8247    -6.8483    -0.0859 C.ar    
  21 C21            4.9103    -5.8098    -0.0712 C.ar    
  22 C22            5.3477    -4.5016    -0.0697 C.ar    
  23 C23            7.6332    -5.2787    -0.1037 C.ar    
  24 C24            8.1707    -7.7201    -0.1204 C.3     
  25 N25            8.4721    -8.0881    -1.5103 N.3     
  26 C26            9.6057    -9.0287    -1.5739 C.3     
  27 C27            9.1137   -10.2880    -2.3180 C.3     
  28 C28            7.9015    -9.7622    -3.1310 C.3     
  29 C29            7.3013    -8.7174    -2.1576 C.3     
  30 H30           -0.9614     1.9069     0.0170 H       
  31 H31           -0.9290    -0.5513     0.0080 H       
  32 H32            1.1893    -1.7648    -0.0177 H       
  33 H33            1.1417     3.1785     0.0075 H       
  34 H34            4.0192     2.7439    -0.0221 H       
  35 H35            8.9176    -0.7236    -0.0888 H       
  36 H36            8.8531     1.8410    -0.0754 H       
  37 H37            5.3530    -2.0020    -0.0579 H       
  38 H38            5.4769    -7.8708    -0.0828 H       
  39 H39            3.8518    -6.0239    -0.0563 H       
  40 H40            4.6331    -3.6920    -0.0579 H       
  41 H41            8.6932    -5.0727    -0.1190 H       
  42 H42            9.0880    -7.4110     0.3807 H       
  43 H43            7.7447    -8.5787     0.3985 H       
  44 H44           10.4335    -8.5755    -2.1193 H       
  45 H45            9.9241    -9.2943    -0.5659 H       
  46 H46            9.8879   -10.6695    -2.9836 H       
  47 H47            8.7995   -11.0555    -1.6106 H       
  48 H48            8.2281    -9.2902    -4.0577 H       
  49 H49            7.1895   -10.5627    -3.3322 H       
  50 H50            6.6745    -9.2084    -1.4132 H       
  51 H51            6.7260    -7.9727    -2.7077 H       
@<TRIPOS>BOND
   1    1    2 ar
   2    1    6 ar
   3    1   30 1
   4    2    3 ar
   5    2   31 1
   6    3    4 ar
   7    3   32 1
   8    4    5 ar
   9    4    7 1
  10    5    6 ar
  11    5    9 1
  12    6   33 1
  13    7    8 2
  14    8    9 1
  15    8   10 1
  16    9   34 1
  17   10   11 1
  18   10   14 2
  19   11   12 2
  20   11   15 1
  21   12   13 1
  22   12   35 1
  23   13   14 1
  24   13   36 1
  25   15   16 am
  26   15   37 1
  27   16   17 1
  28   16   18 2
  29   17   22 ar
  30   17   23 ar
  31   19   20 ar
  32   19   24 1
  33   19   23 ar
  34   20   21 ar
  35   20   38 1
  36   21   22 ar
  37   21   39 1
  38   22   40 1
  39   23   41 1
  40   24   25 1
  41   24   42 1
  42   24   43 1
  43   25   26 1
  44   25   29 1
  45   26   27 1
  46   26   44 1
  47   26   45 1
  48   27   28 1
  49   27   46 1
  50   27   47 1
  51   28   29 1
  52   28   48 1
  53   28   49 1
  54   29   50 1
  55   29   51 1

#	End of record

