#	Name: ASD01883496
#	Creating user name:	WinNT
#	Creation time:	15. 06. 2019 19:46

#	Modifying user name:	WinNT
#	Modification time:	15. 06. 2019 19:46

#	Program:	/corina/corina34_cracker 3.40 0067  02.08.2006

@<TRIPOS>MOLECULE
ASD01883496
  53   55    0    0    0
SMALL
NO_CHARGES


@<TRIPOS>ATOM
   1 N1            -0.0162     1.3424     0.0094 N.am    
   2 C2             0.0021    -0.0041     0.0020 C.2     
   3 C3            -1.2200    -0.7260     0.0103 C.2     
   4 C4            -2.4186    -0.0172     0.0260 C.2     
   5 C5            -2.3789     1.3778     0.0331 C.2     
   6 C6            -1.1865     2.0253     0.0299 C.2     
   7 O7             1.0648    -0.6011    -0.0121 O.2     
   8 C8            -1.2204    -2.1580     0.0021 C.1     
   9 N9            -1.2207    -3.2939    -0.0043 N.1     
  10 C10            1.2492     2.0805     0.0013 C.3     
  11 C11            1.6760     2.3452    -1.4439 C.3     
  12 C12            2.9975     3.1162    -1.4524 C.3     
  13 C13            3.4877     3.2723    -2.8933 C.3     
  14 C14            2.7852     4.4991    -0.8333 C.3     
  15 C15           -3.7381    -0.7452     0.0347 C.3     
  16 C16           -4.5598    -0.3501     1.2790 C.3     
  17 C17           -5.8483     0.2919     0.7216 C.3     
  18 N18           -5.9884    -0.2752    -0.6443 N.3     
  19 C19           -4.5993    -0.3086    -1.1699 C.3     
  20 C20           -6.8475     0.5733    -1.4810 C.3     
  21 C21           -6.1321     1.8633    -1.7893 C.ar    
  22 C22           -5.3350     1.9598    -2.9146 C.ar    
  23 C23           -4.6787     3.1431    -3.1973 C.ar    
  24 C24           -4.8200     4.2301    -2.3551 C.ar    
  25 C25           -5.6179     4.1340    -1.2304 C.ar    
  26 C26           -6.2776     2.9520    -0.9499 C.ar    
  27 H27           -3.2991     1.9430     0.0453 H       
  28 H28           -1.1699     3.1052     0.0358 H       
  29 H29            1.1196     3.0296     0.5215 H       
  30 H30            2.0163     1.4921     0.5047 H       
  31 H31            1.8056     1.3962    -1.9641 H       
  32 H32            0.9088     2.9337    -1.9473 H       
  33 H33            3.7411     2.5690    -0.8730 H       
  34 H34            2.7441     3.8195    -3.4728 H       
  35 H35            4.4292     3.8215    -2.8994 H       
  36 H36            3.6389     2.2870    -3.3344 H       
  37 H37            2.0416     5.0463    -1.4127 H       
  38 H38            2.4360     4.3879     0.1933 H       
  39 H39            3.7267     5.0483    -0.8393 H       
  40 H40           -3.5753    -1.8228     0.0150 H       
  41 H41           -4.8018    -1.2340     1.8691 H       
  42 H42           -4.0087     0.3703     1.8835 H       
  43 H43           -6.7059     0.0186     1.3364 H       
  44 H44           -5.7433     1.3758     0.6743 H       
  45 H45           -4.2988     0.6813    -1.5132 H       
  46 H46           -4.5164    -1.0340    -1.9792 H       
  47 H47           -7.0763     0.0534    -2.4113 H       
  48 H48           -7.7737     0.7897    -0.9485 H       
  49 H49           -5.2246     1.1105    -3.5726 H       
  50 H50           -4.0554     3.2182    -4.0761 H       
  51 H51           -4.3067     5.1544    -2.5757 H       
  52 H52           -5.7279     4.9831    -0.5722 H       
  53 H53           -6.9009     2.8769    -0.0712 H       
@<TRIPOS>BOND
   1    1    2 am
   2    1   10 1
   3    1    6 1
   4    2    3 1
   5    2    7 2
   6    3    4 2
   7    3    8 1
   8    4    5 1
   9    4   15 1
  10    5    6 2
  11    5   27 1
  12    6   28 1
  13    8    9 3
  14   10   11 1
  15   10   29 1
  16   10   30 1
  17   11   12 1
  18   11   31 1
  19   11   32 1
  20   12   13 1
  21   12   14 1
  22   12   33 1
  23   13   34 1
  24   13   35 1
  25   13   36 1
  26   14   37 1
  27   14   38 1
  28   14   39 1
  29   15   16 1
  30   15   19 1
  31   15   40 1
  32   16   17 1
  33   16   41 1
  34   16   42 1
  35   17   18 1
  36   17   43 1
  37   17   44 1
  38   18   19 1
  39   18   20 1
  40   19   45 1
  41   19   46 1
  42   20   21 1
  43   20   47 1
  44   20   48 1
  45   21   22 ar
  46   21   26 ar
  47   22   23 ar
  48   22   49 1
  49   23   24 ar
  50   23   50 1
  51   24   25 ar
  52   24   51 1
  53   25   26 ar
  54   25   52 1
  55   26   53 1

#	End of record

