#	Name: ASD01884782
#	Creating user name:	WinNT
#	Creation time:	15. 06. 2019 19:48

#	Modifying user name:	WinNT
#	Modification time:	15. 06. 2019 19:48

#	Program:	/corina/corina34_cracker 3.40 0067  02.08.2006

@<TRIPOS>MOLECULE
ASD01884782
  37   40    0    0    0
SMALL
NO_CHARGES


@<TRIPOS>ATOM
   1 O1            -0.0162     1.3429     0.0094 O.3     
   2 C2             0.0021    -0.0041     0.0020 C.2     
   3 O3             1.0621    -0.5970    -0.0113 O.2     
   4 C4            -1.2673    -0.7602     0.0101 C.ar    
   5 C5            -2.4869    -0.0801     0.0196 C.ar    
   6 C6            -3.6747    -0.7881     0.0277 C.ar    
   7 F7            -4.8526    -0.1265     0.0373 F       
   8 C8            -3.6610    -2.1714     0.0254 C.ar    
   9 C9            -2.4486    -2.8598     0.0154 C.ar    
  10 C10           -1.2503    -2.1546     0.0024 C.ar    
  11 C11           -2.4371    -4.3440     0.0135 C.ar    
  12 C12           -1.2254    -5.0328     0.0094 C.ar    
  13 C13           -1.2132    -6.4140     0.0080 C.ar    
  14 C14           -2.3998    -7.1201     0.0103 C.ar    
  15 C15           -3.6178    -6.4415     0.0140 C.ar    
  16 C16           -3.6360    -5.0504     0.0216 C.ar    
  17 C17           -4.8923    -7.2017     0.0154 C.2     
  18 N18           -6.0497    -6.5873     0.0133 N.2     
  19 S19           -7.2245    -7.8150     0.0161 S.3     
  20 C20           -6.0818    -9.1040     0.0199 C.2     
  21 N21           -4.9019    -8.5193     0.0133 N.2     
  22 C22           -6.3649   -10.5551     0.0235 C.2     
  23 C23           -7.6837   -11.2014     0.0182 C.2     
  24 C24           -7.4481   -12.5235     0.0239 C.2     
  25 O25           -6.1227   -12.7323     0.0320 O.3     
  26 C26           -5.4577   -11.5693     0.0265 C.2     
  27 H27            0.8393     1.7936     0.0037 H       
  28 H28           -2.5025     0.9997     0.0210 H       
  29 H29           -4.5916    -2.7194     0.0317 H       
  30 H30           -0.3095    -2.6849    -0.0098 H       
  31 H31           -0.2944    -4.4856     0.0069 H       
  32 H32           -0.2720    -6.9437     0.0048 H       
  33 H33           -2.3844    -8.2000     0.0089 H       
  34 H34           -4.5771    -4.5206     0.0293 H       
  35 H35           -8.6469   -10.7128     0.0116 H       
  36 H36           -8.2041   -13.2948     0.0225 H       
  37 H37           -4.3836   -11.4560     0.0270 H       
@<TRIPOS>BOND
   1    1    2 1
   2    1   27 1
   3    2    3 2
   4    2    4 1
   5    4   10 ar
   6    4    5 ar
   7    5    6 ar
   8    5   28 1
   9    6    7 1
  10    6    8 ar
  11    8    9 ar
  12    8   29 1
  13    9   10 ar
  14    9   11 1
  15   10   30 1
  16   11   16 ar
  17   11   12 ar
  18   12   13 ar
  19   12   31 1
  20   13   14 ar
  21   13   32 1
  22   14   15 ar
  23   14   33 1
  24   15   16 ar
  25   15   17 1
  26   16   34 1
  27   17   21 1
  28   17   18 2
  29   18   19 1
  30   19   20 1
  31   20   21 2
  32   20   22 1
  33   22   26 2
  34   22   23 1
  35   23   24 2
  36   23   35 1
  37   24   25 1
  38   24   36 1
  39   25   26 1
  40   26   37 1

#	End of record

