#	Name: ASD03092954
#	Creating user name:	WinNT
#	Creation time:	15. 06. 2019 20:33

#	Modifying user name:	WinNT
#	Modification time:	15. 06. 2019 20:33

#	Program:	/corina/corina34_cracker 3.40 0067  02.08.2006

@<TRIPOS>MOLECULE
ASD03092954
  47   49    0    0    0
SMALL
NO_CHARGES


@<TRIPOS>ATOM
   1 C1            -0.0184     1.5028     0.0103 C.3     
   2 C2             0.0021    -0.0041     0.0020 C.ar    
   3 C3             0.0058    -0.6873    -1.2005 C.ar    
   4 C4             0.0249    -2.0679    -1.2119 C.ar    
   5 C5             0.0405    -2.7709    -0.0132 C.ar    
   6 S6             0.0656    -4.5327    -0.0229 S.3     
   7 C7             0.0798    -4.9504     1.7423 C.3     
   8 C8             0.1022    -6.4714     1.9064 C.3     
   9 H9            -0.3765    -7.0375     1.1073 H       
  10 C10            1.3314    -7.0919     2.5733 C.3     
  11 H11            2.1241    -6.4166     2.8952 H       
  12 C12            1.7877    -8.4391     2.0752 C.ar    
  13 C13            1.0082    -9.1443     1.1774 C.ar    
  14 C14            1.4267   -10.3800     0.7206 C.ar    
  15 C15            2.6248   -10.9103     1.1611 C.ar    
  16 C16            3.4047   -10.2047     2.0583 C.ar    
  17 C17            2.9883    -8.9671     2.5118 C.ar    
  18 S18            3.1577   -12.4860     0.5797 S.o2    
  19 N19            4.0578   -12.2259    -0.7858 N.am    
  20 O20            4.0528   -12.9936     1.5596 O.2     
  21 O21            1.9877   -13.1768     0.1636 O.2     
  22 C22            0.0005    -7.0303     3.3270 C.3     
  23 C23           -0.1158    -6.0254     4.4748 C.3     
  24 C24           -0.7649    -8.3413     3.5173 C.3     
  25 C25            0.0368    -2.0810     1.1932 C.ar    
  26 C26            0.0229    -0.7003     1.1969 C.ar    
  27 H27            1.0042     1.8801     0.0026 H       
  28 H28           -0.5455     1.8639    -0.8728 H       
  29 H29           -0.5286     1.8543     0.9071 H       
  30 H30           -0.0067    -0.1403    -2.1316 H       
  31 H31            0.0274    -2.6008    -2.1513 H       
  32 H32            0.9659    -4.5214     2.2101 H       
  33 H33           -0.8139    -4.5467     2.2183 H       
  34 H34            0.0721    -8.7300     0.8332 H       
  35 H35            0.8174   -10.9313     0.0197 H       
  36 H36            4.3406   -10.6192     2.4027 H       
  37 H37            3.5994    -8.4141     3.2098 H       
  38 H38            4.1969   -11.3224    -1.1102 H       
  39 H39            4.4458   -12.9770    -1.2613 H       
  40 H40           -1.1102    -6.0916     4.9164 H       
  41 H41            0.6341    -6.2513     5.2329 H       
  42 H42            0.0458    -5.0173     4.0930 H       
  43 H43           -1.0050    -8.7666     2.5428 H       
  44 H44           -0.1485    -9.0437     4.0783 H       
  45 H45           -1.6864    -8.1477     4.0663 H       
  46 H46            0.0488    -2.6241     2.1266 H       
  47 H47            0.0244    -0.1634     2.1340 H       
@<TRIPOS>BOND
   1    1    2 1
   2    1   27 1
   3    1   28 1
   4    1   29 1
   5    2   26 ar
   6    2    3 ar
   7    3    4 ar
   8    3   30 1
   9    4    5 ar
  10    4   31 1
  11    5    6 1
  12    5   25 ar
  13    6    7 1
  14    7    8 1
  15    7   32 1
  16    7   33 1
  17    8    9 1
  18    8   22 1
  19    8   10 1
  20   10   11 1
  21   10   12 1
  22   10   22 1
  23   12   17 ar
  24   12   13 ar
  25   13   14 ar
  26   13   34 1
  27   14   15 ar
  28   14   35 1
  29   15   16 ar
  30   15   18 1
  31   16   17 ar
  32   16   36 1
  33   17   37 1
  34   18   19 am
  35   18   20 2
  36   18   21 2
  37   19   38 1
  38   19   39 1
  39   22   23 1
  40   22   24 1
  41   23   40 1
  42   23   41 1
  43   23   42 1
  44   24   43 1
  45   24   44 1
  46   24   45 1
  47   25   26 ar
  48   25   46 1
  49   26   47 1

#	End of record

