#	Name: ASD01900638
#	Creating user name:	WinNT
#	Creation time:	15. 06. 2019 19:52

#	Modifying user name:	WinNT
#	Modification time:	15. 06. 2019 19:52

#	Program:	/corina/corina34_cracker 3.40 0067  02.08.2006

@<TRIPOS>MOLECULE
ASD01900638
  38   41    0    0    0
SMALL
NO_CHARGES


@<TRIPOS>ATOM
   1 C1            -0.0183     1.4026     0.1324 C.ar    
   2 C2            -0.0081     0.0177     0.1213 C.ar    
   3 C3             1.1829    -0.6778     0.0629 C.ar    
   4 C4             2.3875     0.0113     0.0138 C.ar    
   5 C5             2.3724     1.4127     0.0291 C.ar    
   6 O6             3.5588    -0.6565    -0.0554 O.3     
   7 C7             4.7336    -0.0514     0.1911 C.2     
   8 C8             4.8726     1.2954     0.2215 C.2     
   9 C9             3.6750     2.1247    -0.0107 C.2     
  10 C10            5.9223    -0.8904     0.4397 C.ar    
  11 N11            7.0973    -0.3039     0.6863 N.ar    
  12 C12            8.1922    -0.9846     0.9153 C.ar    
  13 C13            8.1669    -2.3908     0.9087 C.ar    
  14 C14            6.9371    -3.0522     0.6507 C.ar    
  15 C15            5.7955    -2.2713     0.4182 C.ar    
  16 C16            9.3206    -3.1515     1.1490 C.ar    
  17 C17            9.2512    -4.5124     1.1328 C.ar    
  18 C18            8.0506    -5.1701     0.8805 C.ar    
  19 C19            6.8947    -4.4599     0.6405 C.ar    
  20 C20            1.1700     2.1048     0.0864 C.ar    
  21 O21            5.7281    -5.1098     0.3953 O.3     
  22 C22            5.7677    -6.5383     0.4004 C.3     
  23 N23            3.7558     3.4131    -0.2390 N.2     
  24 O24            2.5972     4.1419    -0.6017 O.3     
  25 H25           -0.9575     1.9343     0.1725 H       
  26 H26           -0.9418    -0.5238     0.1592 H       
  27 H27            1.1778    -1.7577     0.0558 H       
  28 H28            5.8339     1.7497     0.4108 H       
  29 H29            9.1183    -0.4642     1.1097 H       
  30 H30            4.8408    -2.7350     0.2185 H       
  31 H31           10.2618    -2.6598     1.3460 H       
  32 H32           10.1439    -5.0910     1.3187 H       
  33 H33            8.0249    -6.2498     0.8730 H       
  34 H34            1.1641     3.1848     0.0942 H       
  35 H35            6.4626    -6.8852    -0.3644 H       
  36 H36            6.0985    -6.8891     1.3779 H       
  37 H37            4.7722    -6.9301     0.1915 H       
  38 H38            2.7555     5.0843    -0.7494 H       
@<TRIPOS>BOND
   1    1    2 ar
   2    1   20 ar
   3    1   25 1
   4    2    3 ar
   5    2   26 1
   6    3    4 ar
   7    3   27 1
   8    4    5 ar
   9    4    6 1
  10    5   20 ar
  11    5    9 1
  12    6    7 1
  13    7    8 2
  14    7   10 1
  15    8    9 1
  16    8   28 1
  17    9   23 2
  18   10   11 ar
  19   10   15 ar
  20   11   12 ar
  21   12   13 ar
  22   12   29 1
  23   13   14 ar
  24   13   16 ar
  25   14   15 ar
  26   14   19 ar
  27   15   30 1
  28   16   17 ar
  29   16   31 1
  30   17   18 ar
  31   17   32 1
  32   18   19 ar
  33   18   33 1
  34   19   21 1
  35   20   34 1
  36   21   22 1
  37   22   35 1
  38   22   36 1
  39   22   37 1
  40   23   24 1
  41   24   38 1

#	End of record

