#	Name: ASD07931745
#	Creating user name:	WinNT
#	Creation time:	15. 06. 2019 21:13

#	Modifying user name:	WinNT
#	Modification time:	15. 06. 2019 21:13

#	Program:	/corina/corina34_cracker 3.40 0067  02.08.2006

@<TRIPOS>MOLECULE
ASD07931745
  57   61    0    0    0
SMALL
NO_CHARGES


@<TRIPOS>ATOM
   1 C1            -0.0388     1.3913    -0.3710 C.2     
   2 C2            -0.0245     0.0397    -0.1601 C.2     
   3 C3             1.2626    -0.6302     0.0420 C.2     
   4 N4             2.3936     0.0961     0.0173 N.am    
   5 C5             2.3531     1.4550    -0.1989 C.2     
   6 C6             1.1694     2.0991    -0.3891 C.2     
   7 C7             3.7004    -0.5429     0.2225 C.3     
   8 C8             4.6996     0.0918    -0.7563 C.3     
   9 N9             4.7738     1.5332    -0.4779 N.am    
  10 C10            3.6270     2.2072    -0.2223 C.2     
  11 C11            6.0637     2.2276    -0.4769 C.3     
  12 O12            1.3076    -1.8339     0.2310 O.2     
  13 N13           -1.2169    -0.6892    -0.1373 N.pl3   
  14 C14           -2.0784    -0.8761    -1.1878 C.2     
  15 C15           -1.7388    -1.3517     0.9284 C.2     
  16 N16           -2.8596    -1.9106     0.5618 N.2     
  17 C17           -3.0921    -1.6352    -0.7304 C.2     
  18 C18           -4.2823    -2.0960    -1.5318 C.3     
  19 O19            3.6441     3.4054    -0.0167 O.2     
  20 C20            6.6564     2.2046    -1.8872 C.3     
  21 C21            5.6551     2.8009    -2.9012 C.3     
  22 C22            5.8391     1.9323    -4.1657 C.3     
  23 C23            6.9299     0.9140    -3.7661 C.3     
  24 O24            6.8588     0.8433    -2.3254 O.3     
  25 C25            6.6365    -0.4340    -4.3726 C.2     
  26 C26            7.2116    -0.9244    -5.4717 C.2     
  27 C27            7.0199     1.5260     0.4897 C.3     
  28 C28            6.7825    -2.1877    -5.8405 C.2     
  29 C29            5.8588    -2.7232    -5.0410 C.2     
  30 S30            5.4887    -1.6045    -3.7352 S.3     
  31 C31            5.2319    -4.0812    -5.2254 C.3     
  32 F32            5.9891    -5.0407    -4.5448 F       
  33 F33            3.9295    -4.0668    -4.7148 F       
  34 F34            5.1951    -4.3967    -6.5879 F       
  35 H35           -0.9744     1.9078    -0.5267 H       
  36 H36            1.1617     3.1661    -0.5560 H       
  37 H37            4.0338    -0.3788     1.2472 H       
  38 H38            3.6222    -1.6124     0.0269 H       
  39 H39            5.6827    -0.3586    -0.6195 H       
  40 H40            4.3603    -0.0664    -1.7799 H       
  41 H41            5.9200     3.2606    -0.1600 H       
  42 H42           -1.9655    -0.4888    -2.1896 H       
  43 H43           -1.2994    -1.4066     1.9135 H       
  44 H44           -5.0814    -1.3591    -1.4518 H       
  45 H45           -3.9949    -2.2083    -2.5772 H       
  46 H46           -4.6313    -3.0538    -1.1460 H       
  47 H47            7.5960     2.7566    -1.9122 H       
  48 H48            4.6354     2.7171    -2.5253 H       
  49 H49            5.9006     3.8415    -3.1135 H       
  50 H50            4.9104     1.4191    -4.4150 H       
  51 H51            6.1756     2.5435    -5.0032 H       
  52 H52            7.9120     1.2669    -4.0807 H       
  53 H53            7.9556    -0.3771    -6.0316 H       
  54 H54            7.1636     0.4930     0.1728 H       
  55 H55            7.9797     2.0426     0.4905 H       
  56 H56            6.5977     1.5424     1.4945 H       
  57 H57            7.1662    -2.7007    -6.7100 H       
@<TRIPOS>BOND
   1    1    2 2
   2    1    6 1
   3    1   35 1
   4    2    3 1
   5    2   13 1
   6    3    4 am
   7    3   12 2
   8    4    5 1
   9    4    7 1
  10    5    6 2
  11    5   10 1
  12    6   36 1
  13    7    8 1
  14    7   37 1
  15    7   38 1
  16    8    9 1
  17    8   39 1
  18    8   40 1
  19    9   10 am
  20    9   11 1
  21   10   19 2
  22   11   27 1
  23   11   20 1
  24   11   41 1
  25   13   14 1
  26   13   15 1
  27   14   17 2
  28   14   42 1
  29   15   16 2
  30   15   43 1
  31   16   17 1
  32   17   18 1
  33   18   44 1
  34   18   45 1
  35   18   46 1
  36   20   21 1
  37   20   24 1
  38   20   47 1
  39   21   22 1
  40   21   48 1
  41   21   49 1
  42   22   23 1
  43   22   50 1
  44   22   51 1
  45   23   24 1
  46   23   25 1
  47   23   52 1
  48   25   26 2
  49   25   30 1
  50   26   28 1
  51   26   53 1
  52   27   54 1
  53   27   55 1
  54   27   56 1
  55   28   29 2
  56   28   57 1
  57   29   30 1
  58   29   31 1
  59   31   32 1
  60   31   33 1
  61   31   34 1

#	End of record

