#	Name: ASD08070675
#	Creating user name:	WinNT
#	Creation time:	15. 06. 2019 21:15

#	Modifying user name:	WinNT
#	Modification time:	15. 06. 2019 21:15

#	Program:	/corina/corina34_cracker 3.40 0067  02.08.2006

@<TRIPOS>MOLECULE
ASD08070675
  41   41    0    0    0
SMALL
NO_CHARGES


@<TRIPOS>ATOM
   1 C1            -0.0178     1.4591     0.0101 C.2     
   2 C2             0.0021    -0.0041     0.0020 C.2     
   3 C3             1.1793    -0.6626    -0.0128 C.2     
   4 O4             1.0279     2.0820     0.0034 O.2     
   5 N5            -1.1940     2.1171     0.0192 N.am    
   6 C6            -1.2139     3.5819     0.0273 C.3     
   7 C7            -1.1019     4.1014    -1.4075 C.3     
   8 C8             0.2628     3.7183    -1.9835 C.3     
   9 C9             0.3747     4.2377    -3.4183 C.3     
  10 C10           -2.5251     4.0708     0.6458 C.3     
  11 C11           -2.5801     3.6572     2.1178 C.3     
  12 C12           -3.8913     4.1460     2.7363 C.3     
  13 C13            1.1992    -2.1333    -0.0208 C.ar    
  14 C14            2.4197    -2.8213    -0.0362 C.ar    
  15 C15            2.4281    -4.2031    -0.0437 C.ar    
  16 C16            1.2363    -4.9049    -0.0362 C.ar    
  17 C17            0.0269    -4.2312    -0.0215 C.ar    
  18 C18            0.0002    -2.8530    -0.0075 C.ar    
  19 F19            3.5841    -2.1362    -0.0440 F       
  20 H20           -0.9258    -0.5567     0.0079 H       
  21 H21            2.1072    -0.1099    -0.0187 H       
  22 H22           -2.0274     1.6207     0.0205 H       
  23 H23           -0.3743     3.9535     0.6148 H       
  24 H24           -1.8904     3.6594    -2.0165 H       
  25 H25           -1.2058     5.1864    -1.4102 H       
  26 H26            1.0513     4.1603    -1.3745 H       
  27 H27            0.3666     2.6332    -1.9808 H       
  28 H28            1.3469     3.9648    -3.8287 H       
  29 H29           -0.4138     3.7957    -4.0273 H       
  30 H30            0.2709     5.3228    -3.4210 H       
  31 H31           -2.5793     5.1569     0.5713 H       
  32 H32           -3.3660     3.6277     0.1122 H       
  33 H33           -2.5259     2.5710     2.1923 H       
  34 H34           -1.7392     4.1003     2.6514 H       
  35 H35           -3.9454     5.2321     2.6618 H       
  36 H36           -4.7321     3.7029     2.2027 H       
  37 H37           -3.9304     3.8513     3.7850 H       
  38 H38            3.3672    -4.7362    -0.0559 H       
  39 H39            1.2491    -5.9848    -0.0421 H       
  40 H40           -0.8988    -4.7874    -0.0160 H       
  41 H41           -0.9447    -2.3301     0.0092 H       
@<TRIPOS>BOND
   1    1    2 1
   2    1    4 2
   3    1    5 am
   4    2    3 2
   5    2   20 1
   6    3   13 1
   7    3   21 1
   8    5    6 1
   9    5   22 1
  10    6    7 1
  11    6   10 1
  12    6   23 1
  13    7    8 1
  14    7   24 1
  15    7   25 1
  16    8    9 1
  17    8   26 1
  18    8   27 1
  19    9   28 1
  20    9   29 1
  21    9   30 1
  22   10   11 1
  23   10   31 1
  24   10   32 1
  25   11   12 1
  26   11   33 1
  27   11   34 1
  28   12   35 1
  29   12   36 1
  30   12   37 1
  31   13   14 ar
  32   13   18 ar
  33   14   15 ar
  34   14   19 1
  35   15   16 ar
  36   15   38 1
  37   16   17 ar
  38   16   39 1
  39   17   18 ar
  40   17   40 1
  41   18   41 1

#	End of record

