#	Name: ASD00100116
#	Creating user name:	WinNT
#	Creation time:	15. 06. 2019 18:30

#	Modifying user name:	WinNT
#	Modification time:	15. 06. 2019 18:30

#	Program:	/corina/corina34_cracker 3.40 0067  02.08.2006

@<TRIPOS>MOLECULE
ASD00100116
  41   44    0    0    0
SMALL
NO_CHARGES


@<TRIPOS>ATOM
   1 C1            -0.1202     1.4739    -0.1543 C.2     
   2 N2            -0.2361     0.1680    -0.1638 N.2     
   3 C3             0.9915    -0.3895    -0.0160 C.2     
   4 C4             1.8961     0.6152     0.0882 C.2     
   5 N5             1.1924     1.7957     0.0006 N.pl3   
   6 N6            -1.1615     2.3767    -0.2863 N.pl3   
   7 C7             1.7535     3.1476     0.0623 C.3     
   8 C8             1.6805     3.6576     1.4785 C.ar    
   9 C9             2.6818     3.3375     2.3843 C.ar    
  10 C10            2.6117     3.8085     3.6871 C.ar    
  11 C11            1.5456     4.5947     4.0798 C.ar    
  12 C12            0.5491     4.9118     3.1756 C.ar    
  13 C13            0.6198     4.4487     1.8745 C.ar    
  14 O14            3.7291     2.5636     1.9957 O.3     
  15 C15            4.7228     2.2744     2.9811 C.3     
  16 C16            2.5243    -2.3177     0.1740 C.2     
  17 C17            1.2913    -1.8417     0.0249 C.2     
  18 C18            0.2568    -2.8656    -0.0947 C.ar    
  19 C19            0.7900    -4.1540    -0.0260 C.ar    
  20 S20            2.5345    -4.0702     0.1820 S.3     
  21 C21           -1.1344    -2.7121    -0.2618 C.ar    
  22 C22           -1.9438    -3.8033    -0.3547 C.ar    
  23 C23           -1.4124    -5.0835    -0.2859 C.ar    
  24 C24           -0.0588    -5.2617    -0.1227 C.ar    
  25 H25            2.9634     0.5099     0.2159 H       
  26 H26           -2.0628     2.0571    -0.4487 H       
  27 H27           -0.9897     3.3288    -0.2164 H       
  28 H28            2.7938     3.1244    -0.2623 H       
  29 H29            1.1835     3.8078    -0.5914 H       
  30 H30            3.3896     3.5604     4.3940 H       
  31 H31            1.4906     4.9616     5.0941 H       
  32 H32           -0.2838     5.5260     3.4847 H       
  33 H33           -0.1575     4.7017     1.1687 H       
  34 H34            5.5002     1.6501     2.5408 H       
  35 H35            5.1631     3.2057     3.3373 H       
  36 H36            4.2631     1.7469     3.8168 H       
  37 H37            3.4068    -1.7030     0.2729 H       
  38 H38           -1.5617    -1.7217    -0.3163 H       
  39 H39           -3.0081    -3.6714    -0.4826 H       
  40 H40           -2.0636    -5.9419    -0.3603 H       
  41 H41            0.3503    -6.2598    -0.0697 H       
@<TRIPOS>BOND
   1    1    2 2
   2    1    5 1
   3    1    6 1
   4    2    3 1
   5    3    4 2
   6    3   17 1
   7    4    5 1
   8    4   25 1
   9    5    7 1
  10    6   26 1
  11    6   27 1
  12    7    8 1
  13    7   28 1
  14    7   29 1
  15    8    9 ar
  16    8   13 ar
  17    9   10 ar
  18    9   14 1
  19   10   11 ar
  20   10   30 1
  21   11   12 ar
  22   11   31 1
  23   12   13 ar
  24   12   32 1
  25   13   33 1
  26   14   15 1
  27   15   34 1
  28   15   35 1
  29   15   36 1
  30   16   17 2
  31   16   20 1
  32   16   37 1
  33   17   18 1
  34   18   19 ar
  35   18   21 ar
  36   19   20 1
  37   19   24 ar
  38   21   22 ar
  39   21   38 1
  40   22   23 ar
  41   22   39 1
  42   23   24 ar
  43   23   40 1
  44   24   41 1

#	End of record

