#	Name: ASD01870492
#	Creating user name:	WinNT
#	Creation time:	15. 06. 2019 19:39

#	Modifying user name:	WinNT
#	Modification time:	15. 06. 2019 19:39

#	Program:	/corina/corina34_cracker 3.40 0067  02.08.2006

@<TRIPOS>MOLECULE
ASD01870492
  39   42    0    0    0
SMALL
NO_CHARGES


@<TRIPOS>ATOM
   1 C1            -0.0305     1.3983    -0.2318 C.ar    
   2 C2            -0.0276     0.0163    -0.1043 C.ar    
   3 C3             1.1531    -0.6623     0.1406 C.ar    
   4 C4             2.3479     0.0286     0.2624 C.ar    
   5 C5             2.3597     1.4089     0.1374 C.ar    
   6 C6             1.1570     2.1011    -0.1127 C.ar    
   7 C7             3.4139     2.4419     0.2055 C.2     
   8 N8             2.8481     3.6461     0.0068 N.am    
   9 C9             1.5219     3.5316    -0.1872 C.2     
  10 O10            0.7532     4.4498    -0.3903 O.2     
  11 O11            4.5941     2.2380     0.4074 O.2     
  12 C12            3.5490     4.8620     0.0041 C.ar    
  13 C13            4.0796     5.3546    -1.1804 C.ar    
  14 C14            4.7687     6.5508    -1.1837 C.ar    
  15 C15            4.9319     7.2619    -0.0017 C.ar    
  16 C16            4.4015     6.7698     1.1835 C.ar    
  17 C17            3.7069     5.5754     1.1856 C.ar    
  18 Cl18           3.0373     4.9631     2.6656 Cl      
  19 N19            5.6316     8.4744    -0.0052 N.am    
  20 C20            6.4035     8.8101     1.0474 C.2     
  21 C21            7.2193    10.0350     1.0012 C.2     
  22 O22            6.4261     8.1012     2.0356 O.2     
  23 C23            8.0155    10.4319     2.0195 C.2     
  24 S24            8.7897    11.8906     1.5783 S.3     
  25 C25            8.0065    11.8867     0.0608 C.2     
  26 N26            7.2465    10.8549    -0.0528 N.2     
  27 C27            8.1911     9.7071     3.3291 C.3     
  28 Cl28          -1.5149    -0.8666    -0.2527 Cl      
  29 H29           -0.9540     1.9230    -0.4274 H       
  30 H30            1.1432    -1.7379     0.2379 H       
  31 H31            3.2663    -0.5063     0.4543 H       
  32 H32            3.9535     4.8017    -2.0995 H       
  33 H33            5.1813     6.9336    -2.1054 H       
  34 H34            4.5284     7.3225     2.1026 H       
  35 H35            5.5609     9.0730    -0.7652 H       
  36 H36            8.1346    12.6430    -0.6995 H       
  37 H37            9.0133     8.9967     3.2438 H       
  38 H38            8.4136    10.4277     4.1161 H       
  39 H39            7.2733     9.1728     3.5746 H       
@<TRIPOS>BOND
   1    1    2 ar
   2    1    6 ar
   3    1   29 1
   4    2    3 ar
   5    2   28 1
   6    3    4 ar
   7    3   30 1
   8    4    5 ar
   9    4   31 1
  10    5    7 1
  11    5    6 ar
  12    6    9 1
  13    7    8 am
  14    7   11 2
  15    8    9 am
  16    8   12 1
  17    9   10 2
  18   12   13 ar
  19   12   17 ar
  20   13   14 ar
  21   13   32 1
  22   14   15 ar
  23   14   33 1
  24   15   16 ar
  25   15   19 1
  26   16   17 ar
  27   16   34 1
  28   17   18 1
  29   19   20 am
  30   19   35 1
  31   20   21 1
  32   20   22 2
  33   21   23 2
  34   21   26 1
  35   23   24 1
  36   23   27 1
  37   24   25 1
  38   25   26 2
  39   25   36 1
  40   27   37 1
  41   27   38 1
  42   27   39 1

#	End of record

