#	Name: ASD01910760
#	Creating user name:	WinNT
#	Creation time:	15. 06. 2019 19:56

#	Modifying user name:	WinNT
#	Modification time:	15. 06. 2019 19:56

#	Program:	/corina/corina34_cracker 3.40 0067  02.08.2006

@<TRIPOS>MOLECULE
ASD01910760
  54   57    0    0    0
SMALL
NO_CHARGES


@<TRIPOS>ATOM
   1 C1            -0.2862     1.0981     0.3961 C.ar    
   2 C2            -0.1926    -0.2775     0.3063 C.ar    
   3 C3             1.0459    -0.8849     0.2304 C.ar    
   4 C4             2.2010    -0.1130     0.2442 C.ar    
   5 C5             2.1087     1.2693     0.3339 C.ar    
   6 C6             0.8644     1.8745     0.4098 C.ar    
   7 N7             3.4533    -0.7268     0.1684 N.3     
   8 C8             3.3193    -2.1871     0.0810 C.3     
   9 C9             4.6953    -2.8081    -0.1820 C.3     
  10 N10            5.6286    -2.3298     0.8493 N.am    
  11 C11            5.7167    -0.8815     1.0902 C.3     
  12 C12            4.3005    -0.3364     1.3031 C.3     
  13 C13            6.3833    -3.1955     1.5545 C.2     
  14 C14            7.4036    -2.6891     2.4974 C.ar    
  15 O15            6.2253    -4.3927     1.4154 O.2     
  16 C16            7.5967    -3.3235     3.7265 C.ar    
  17 C17            8.5493    -2.8527     4.6088 C.ar    
  18 C18            9.3172    -1.7530     4.2836 C.ar    
  19 C19            9.1349    -1.1077     3.0564 C.ar    
  20 C20            8.1781    -1.5816     2.1591 C.ar    
  21 C21            9.9317     0.0335     2.7200 C.1     
  22 C22           10.5851     0.9692     2.4441 C.1     
  23 C23           11.3819     2.1104     2.1077 C.ar    
  24 C24           11.2009     2.7563     0.8819 C.ar    
  25 C25           11.9718     3.8552     0.5649 C.ar    
  26 C26           12.9229     4.3180     1.4571 C.ar    
  27 C27           13.1081     3.6832     2.6727 C.ar    
  28 C28           12.3403     2.5870     3.0060 C.ar    
  29 O29            0.7707     3.2274     0.4973 O.3     
  30 C30           -0.5437     3.7831     0.5723 C.3     
  31 H31           -1.2560     1.5702     0.4512 H       
  32 H32           -1.0895    -0.8792     0.2958 H       
  33 H33            1.1163    -1.9604     0.1606 H       
  34 H34            3.0050     1.8718     0.3448 H       
  35 H35            2.9196    -2.5725     1.0190 H       
  36 H36            2.6432    -2.4422    -0.7350 H       
  37 H37            4.6220    -3.8946    -0.1339 H       
  38 H38            5.0514    -2.5056    -1.1668 H       
  39 H39            6.3187    -0.6942     1.9794 H       
  40 H40            6.1710    -0.3938     0.2277 H       
  41 H41            4.3360     0.7508     1.3734 H       
  42 H42            3.8871    -0.7475     2.2241 H       
  43 H43            6.9992    -4.1844     3.9880 H       
  44 H44            8.6938    -3.3474     5.5580 H       
  45 H45           10.0601    -1.3899     4.9783 H       
  46 H46            8.0327    -1.0875     1.2098 H       
  47 H47           10.4595     2.3957     0.1843 H       
  48 H48           11.8331     4.3554    -0.3821 H       
  49 H49           13.5239     5.1787     1.2034 H       
  50 H50           13.8527     4.0495     3.3638 H       
  51 H51           12.4859     2.0925     3.9551 H       
  52 H52           -1.0517     3.3966     1.4558 H       
  53 H53           -0.4759     4.8690     0.6381 H       
  54 H54           -1.1061     3.5076    -0.3199 H       
@<TRIPOS>BOND
   1    1    2 ar
   2    1    6 ar
   3    1   31 1
   4    2    3 ar
   5    2   32 1
   6    3    4 ar
   7    3   33 1
   8    4    5 ar
   9    4    7 1
  10    5    6 ar
  11    5   34 1
  12    6   29 1
  13    7    8 1
  14    7   12 1
  15    8    9 1
  16    8   35 1
  17    8   36 1
  18    9   10 1
  19    9   37 1
  20    9   38 1
  21   10   11 1
  22   10   13 am
  23   11   12 1
  24   11   39 1
  25   11   40 1
  26   12   41 1
  27   12   42 1
  28   13   14 1
  29   13   15 2
  30   14   16 ar
  31   14   20 ar
  32   16   17 ar
  33   16   43 1
  34   17   18 ar
  35   17   44 1
  36   18   19 ar
  37   18   45 1
  38   19   20 ar
  39   19   21 1
  40   20   46 1
  41   21   22 3
  42   22   23 1
  43   23   24 ar
  44   23   28 ar
  45   24   25 ar
  46   24   47 1
  47   25   26 ar
  48   25   48 1
  49   26   27 ar
  50   26   49 1
  51   27   28 ar
  52   27   50 1
  53   28   51 1
  54   29   30 1
  55   30   52 1
  56   30   53 1
  57   30   54 1

#	End of record

