#	Name: ASD06170083
#	Creating user name:	WinNT
#	Creation time:	15. 06. 2019 21:05

#	Modifying user name:	WinNT
#	Modification time:	15. 06. 2019 21:05

#	Program:	/corina/corina34_cracker 3.40 0067  02.08.2006

@<TRIPOS>MOLECULE
ASD06170083
  66   70    0    0    0
SMALL
NO_CHARGES


@<TRIPOS>ATOM
   1 N1             0.1526     1.1517    -1.0315 N.pl3   
   2 N2            -0.0196    -0.1396    -0.5240 N.am    
   3 C3             1.1810    -0.6074    -0.1238 C.2     
   4 C4             2.1579     0.4580    -0.3994 C.2     
   5 C5             1.4497     1.5051    -0.9562 C.2     
   6 C6             3.6009     0.4163    -0.1344 C.2     
   7 O7             4.2985     1.3738    -0.4126 O.2     
   8 N8             4.1533    -0.6824     0.4171 N.am    
   9 C9            -1.2331    -0.8303    -0.4439 C.ar    
  10 C10           -2.0865    -0.8672    -1.5391 C.ar    
  11 C11           -3.2838    -1.5506    -1.4569 C.ar    
  12 C12           -3.6336    -2.1973    -0.2857 C.ar    
  13 C13           -2.7864    -2.1621     0.8067 C.ar    
  14 C14           -1.5847    -1.4857     0.7290 C.ar    
  15 O15            1.4107    -1.6964     0.3684 O.2     
  16 C16            2.0311     2.8212    -1.4047 C.3     
  17 C17            5.5391    -0.7767     0.5456 C.ar    
  18 C18            6.3107     0.3800     0.5368 C.ar    
  19 C19            7.6838     0.2751     0.6649 C.ar    
  20 C20            8.2427    -0.9937     0.7985 C.ar    
  21 C21            7.4112    -2.1021     0.7988 C.ar    
  22 N22            6.1044    -1.9655     0.6799 N.ar    
  23 O23            9.5881    -1.1428     0.9267 O.3     
  24 N24           11.2563    -0.3752     4.6195 N.ar    
  25 C25            9.9746    -0.1753     4.4198 C.ar    
  26 C26            9.3779    -0.4223     3.1901 C.ar    
  27 C27           10.1437    -0.8925     2.1376 C.ar    
  28 C28           11.5227    -1.1042     2.3640 C.ar    
  29 C29           12.3624    -1.5791     1.3459 C.ar    
  30 C30           13.6862    -1.7728     1.5951 C.ar    
  31 C31           14.2231    -1.5037     2.8574 C.ar    
  32 C32           13.4249    -1.0372     3.8772 C.ar    
  33 C33           12.0559    -0.8284     3.6467 C.ar    
  34 O34           15.5478    -1.7054     3.0803 O.3     
  35 C35           -0.9185     1.9931    -1.5710 C.3     
  36 C36           -1.4157     2.9463    -0.4823 C.3     
  37 C37           -2.6157     3.7376    -1.0064 C.3     
  38 C38           -1.8346     2.1402     0.7488 C.3     
  39 O39           -0.3679     3.8503    -0.1259 O.3     
  40 H40            3.5873    -1.4076     0.7246 H       
  41 H41           -1.8142    -0.3618    -2.4538 H       
  42 H42           -3.9479    -1.5796    -2.3081 H       
  43 H43           -4.5706    -2.7307    -0.2238 H       
  44 H44           -3.0627    -2.6675     1.7202 H       
  45 H45           -0.9213    -1.4626     1.5809 H       
  46 H46            2.0106     3.5287    -0.5758 H       
  47 H47            3.0609     2.6717    -1.7293 H       
  48 H48            1.4424     3.2149    -2.2332 H       
  49 H49            5.8437     1.3480     0.4309 H       
  50 H50            8.3081     1.1564     0.6610 H       
  51 H51            7.8376    -3.0890     0.9017 H       
  52 H52            9.3671     0.1911     5.2341 H       
  53 H53            8.3204    -0.2486     3.0560 H       
  54 H54           11.9593    -1.7909     0.3666 H       
  55 H55           14.3294    -2.1389     0.8085 H       
  56 H56           13.8495    -0.8324     4.8489 H       
  57 H57           16.0997    -0.9330     2.8962 H       
  58 H58           -0.5375     2.5706    -2.4133 H       
  59 H59           -1.7422     1.3626    -1.9058 H       
  60 H60           -3.4149     3.0480    -1.2783 H       
  61 H61           -2.9699     4.4166    -0.2309 H       
  62 H62           -2.3173     4.3118    -1.8835 H       
  63 H63           -0.9797     1.5765     1.1222 H       
  64 H64           -2.1888     2.8193     1.5244 H       
  65 H65           -2.6338     1.4507     0.4769 H       
  66 H66           -0.0520     4.3952    -0.8597 H       
@<TRIPOS>BOND
   1    1    2 1
   2    1    5 1
   3    1   35 1
   4    2    3 am
   5    2    9 1
   6    3    4 1
   7    3   15 2
   8    4    5 2
   9    4    6 1
  10    5   16 1
  11    6    7 2
  12    6    8 am
  13    8   17 1
  14    8   40 1
  15    9   10 ar
  16    9   14 ar
  17   10   11 ar
  18   10   41 1
  19   11   12 ar
  20   11   42 1
  21   12   13 ar
  22   12   43 1
  23   13   14 ar
  24   13   44 1
  25   14   45 1
  26   16   46 1
  27   16   47 1
  28   16   48 1
  29   17   18 ar
  30   17   22 ar
  31   18   19 ar
  32   18   49 1
  33   19   20 ar
  34   19   50 1
  35   20   21 ar
  36   20   23 1
  37   21   22 ar
  38   21   51 1
  39   23   27 1
  40   24   25 ar
  41   24   33 ar
  42   25   26 ar
  43   25   52 1
  44   26   27 ar
  45   26   53 1
  46   27   28 ar
  47   28   29 ar
  48   28   33 ar
  49   29   30 ar
  50   29   54 1
  51   30   31 ar
  52   30   55 1
  53   31   32 ar
  54   31   34 1
  55   32   33 ar
  56   32   56 1
  57   34   57 1
  58   35   36 1
  59   35   58 1
  60   35   59 1
  61   36   37 1
  62   36   38 1
  63   36   39 1
  64   37   60 1
  65   37   61 1
  66   37   62 1
  67   38   63 1
  68   38   64 1
  69   38   65 1
  70   39   66 1

#	End of record

