#	Name: ASD01910182
#	Creating user name:	WinNT
#	Creation time:	15. 06. 2019 19:55

#	Modifying user name:	WinNT
#	Modification time:	15. 06. 2019 19:55

#	Program:	/corina/corina34_cracker 3.40 0067  02.08.2006

@<TRIPOS>MOLECULE
ASD01910182
  37   39    0    0    0
SMALL
NO_CHARGES


@<TRIPOS>ATOM
   1 C1             0.1764     1.6772    -0.3920 C.ar    
   2 C2             0.1095     0.2992    -0.3215 C.ar    
   3 C3             1.2715    -0.4475    -0.1685 C.ar    
   4 C4             2.4998     0.1926    -0.0868 C.ar    
   5 C5             2.5636     1.5770    -0.1584 C.ar    
   6 C6             1.3981     2.3176    -0.3110 C.ar    
   7 N7             3.7996     2.2260    -0.0761 N.am    
   8 C8             4.0198     3.3491    -0.7880 C.2     
   9 C9             5.2805     4.1005    -0.6118 C.ar    
  10 N10            1.2028    -1.8422    -0.0963 N.am    
  11 C11            2.1830    -2.5939    -0.6354 C.2     
  12 C12            5.5115     5.2639    -1.3475 C.ar    
  13 C13            6.6902     5.9611    -1.1789 C.ar    
  14 C14            7.6425     5.5098    -0.2829 C.ar    
  15 C15            7.4203     4.3560     0.4503 C.ar    
  16 C16            6.2425     3.6528     0.2953 C.ar    
  17 O17            3.1685    -2.0599    -1.1097 O.2     
  18 O18            3.1817     3.7440    -1.5749 O.2     
  19 C19            2.0620    -4.0550    -0.6507 C.2     
  20 Cl20           8.6220     3.7971     1.5715 Cl      
  21 C21            2.9764    -4.9307    -1.1628 C.2     
  22 C22            2.4562    -6.2192    -0.9644 C.2     
  23 C23            1.2623    -6.0755    -0.3478 C.2     
  24 O24            1.0307    -4.7704    -0.1560 O.3     
  25 H25           -0.7277     2.2549    -0.5151 H       
  26 H26           -0.8470    -0.1983    -0.3852 H       
  27 H27            3.4043    -0.3854     0.0325 H       
  28 H28            1.4471     3.3951    -0.3668 H       
  29 H29            4.4984     1.8679     0.4934 H       
  30 H30            0.4498    -2.2687     0.3417 H       
  31 H31            4.7693     5.6175    -2.0478 H       
  32 H32            6.8699     6.8611    -1.7481 H       
  33 H33            8.5633     6.0593    -0.1547 H       
  34 H34            6.0697     2.7533     0.8675 H       
  35 H35            3.9173    -4.6803    -1.6301 H       
  36 H36            2.9223    -7.1503    -1.2511 H       
  37 H37            0.6049    -6.8807    -0.0550 H       
@<TRIPOS>BOND
   1    1    2 ar
   2    1    6 ar
   3    1   25 1
   4    2    3 ar
   5    2   26 1
   6    3    4 ar
   7    3   10 1
   8    4    5 ar
   9    4   27 1
  10    5    6 ar
  11    5    7 1
  12    6   28 1
  13    7    8 am
  14    7   29 1
  15    8    9 1
  16    8   18 2
  17    9   12 ar
  18    9   16 ar
  19   10   11 am
  20   10   30 1
  21   11   17 2
  22   11   19 1
  23   12   13 ar
  24   12   31 1
  25   13   14 ar
  26   13   32 1
  27   14   15 ar
  28   14   33 1
  29   15   16 ar
  30   15   20 1
  31   16   34 1
  32   19   21 2
  33   19   24 1
  34   21   22 1
  35   21   35 1
  36   22   23 2
  37   22   36 1
  38   23   24 1
  39   23   37 1

#	End of record

