#	Name: ASD03430117
#	Creating user name:	WinNT
#	Creation time:	15. 06. 2019 20:40

#	Modifying user name:	WinNT
#	Modification time:	15. 06. 2019 20:40

#	Program:	/corina/corina34_cracker 3.40 0067  02.08.2006

@<TRIPOS>MOLECULE
ASD03430117
  48   53    0    0    0
SMALL
NO_CHARGES


@<TRIPOS>ATOM
   1 C1            -0.0167     1.3823     0.0096 C.ar    
   2 C2             0.0021    -0.0041     0.0020 C.ar    
   3 C3             1.2030    -0.6817    -0.0149 C.ar    
   4 C4             2.4086     0.0133    -0.0145 C.ar    
   5 C5             2.3861     1.4044    -0.0111 C.ar    
   6 C6             1.1814     2.0871     0.0020 C.ar    
   7 O7             3.4714    -0.8414    -0.0040 O.3     
   8 C8             1.5516    -2.1455    -0.0486 C.3     
   9 C9             3.0371    -2.1457    -0.4343 C.3     
  10 C10            0.4284    -3.8592     1.0093 C.ar    
  11 C11            1.3154    -2.8190     1.2704 C.ar    
  12 C12            0.7183    -2.9067    -1.0393 C.2     
  13 N13            0.0988    -3.8843    -0.3482 N.am    
  14 O14            0.6212    -2.6851    -2.2278 O.2     
  15 C15            1.7818    -2.5981     2.5534 C.ar    
  16 C16            1.3638    -3.4199     3.5940 C.ar    
  17 C17            0.4833    -4.4537     3.3403 C.ar    
  18 C18            0.0170    -4.6755     2.0605 C.ar    
  19 N19            2.6741    -1.5485     2.8040 N.am    
  20 O20           -1.2114     2.0355     0.0189 O.3     
  21 C21           -1.1870     3.4164     0.3961 C.3     
  22 C22           -0.0353     4.0986    -0.3546 C.3     
  23 O23            1.1866     3.4487     0.0107 O.3     
  24 C24           -0.8132    -4.8598    -0.9505 C.3     
  25 C25            4.0128    -1.7694     2.7181 C.2     
  26 C26            4.8942    -0.7703     2.9565 C.2     
  27 C27            4.4282     0.5079     3.2953 C.2     
  28 C28            3.0844     0.7274     3.3804 C.2     
  29 C29            2.1967    -0.3302     3.1220 C.2     
  30 O30            0.9920    -0.1470     3.1943 O.2     
  31 H31           -0.9268    -0.5550     0.0097 H       
  32 H32            3.3147     1.9557    -0.0183 H       
  33 H33            3.1572    -2.2577    -1.5119 H       
  34 H34            3.5756    -2.9287     0.0997 H       
  35 H35            1.7264    -3.2509     4.5972 H       
  36 H36            0.1577    -5.0919     4.1484 H       
  37 H37           -0.6710    -5.4866     1.8729 H       
  38 H38           -2.1320     3.8880     0.1265 H       
  39 H39           -1.0266     3.5012     1.4709 H       
  40 H40           -0.1923     4.0076    -1.4294 H       
  41 H41            0.0113     5.1518    -0.0774 H       
  42 H42           -1.8317    -4.4727    -0.9190 H       
  43 H43           -0.5236    -5.0368    -1.9863 H       
  44 H44           -0.7630    -5.7958    -0.3942 H       
  45 H45            4.3767    -2.7523     2.4575 H       
  46 H46            5.9555    -0.9576     2.8860 H       
  47 H47            5.1256     1.3100     3.4872 H       
  48 H48            2.7068     1.7053     3.6405 H       
@<TRIPOS>BOND
   1    1    2 ar
   2    1    6 ar
   3    1   20 1
   4    2    3 ar
   5    2   31 1
   6    3    4 ar
   7    3    8 1
   8    4    5 ar
   9    4    7 1
  10    5    6 ar
  11    5   32 1
  12    6   23 1
  13    7    9 1
  14    8    9 1
  15    8   11 1
  16    8   12 1
  17    9   33 1
  18    9   34 1
  19   10   11 ar
  20   10   13 1
  21   10   18 ar
  22   11   15 ar
  23   12   13 am
  24   12   14 2
  25   13   24 1
  26   15   16 ar
  27   15   19 1
  28   16   17 ar
  29   16   35 1
  30   17   18 ar
  31   17   36 1
  32   18   37 1
  33   19   25 1
  34   19   29 am
  35   20   21 1
  36   21   22 1
  37   21   38 1
  38   21   39 1
  39   22   23 1
  40   22   40 1
  41   22   41 1
  42   24   42 1
  43   24   43 1
  44   24   44 1
  45   25   26 2
  46   25   45 1
  47   26   27 1
  48   26   46 1
  49   27   28 2
  50   27   47 1
  51   28   29 1
  52   28   48 1
  53   29   30 2

#	End of record

