#	Name: ASD01411095
#	Creating user name:	WinNT
#	Creation time:	15. 06. 2019 19:19

#	Modifying user name:	WinNT
#	Modification time:	15. 06. 2019 19:19

#	Program:	/corina/corina34_cracker 3.40 0067  02.08.2006

@<TRIPOS>MOLECULE
ASD01411095
  40   42    0    0    0
SMALL
NO_CHARGES


@<TRIPOS>ATOM
   1 C1             0.3297     1.0019     0.1862 C.2     
   2 C2             0.5298    -0.4284     0.2310 C.ar    
   3 C3             1.5539     1.5755     0.1232 C.2     
   4 C4            -0.9525     1.7955     0.2075 C.3     
   5 C5             1.9346    -0.6268     0.1899 C.ar    
   6 C6            -0.3533    -1.5119     0.2999 C.ar    
   7 C7             1.7511     3.0719     0.0605 C.3     
   8 N8             2.5191     0.6070     0.1258 N.pl3   
   9 C9            -0.5990     3.2534     0.5354 C.3     
  10 C10            2.4731    -1.9122     0.2170 C.ar    
  11 C11            0.2093    -2.7760     0.3255 C.ar    
  12 Cl12          -2.0731    -1.2810     0.3516 Cl      
  13 O13            0.4967     3.6743    -0.2820 O.3     
  14 C14            2.2171     3.5888     1.4231 C.3     
  15 C15            2.7956     3.4108    -1.0049 C.3     
  16 C16            1.5803    -2.9689     0.2851 C.ar    
  17 Cl17           4.1880    -2.1770     0.1669 Cl      
  18 C18            2.3258     2.9099    -2.3463 C.2     
  19 H19            3.4744     0.7708     0.0875 H       
  20 O20            1.2202     2.4362    -2.4609 O.2     
  21 O21            3.1355     2.9900    -3.4138 O.3     
  22 H22            2.7901     2.6558    -4.2529 H       
  23 C23            3.0868     5.7880     2.9943 C.3     
  24 S24            2.5564     5.3673     1.3114 S.3     
  25 C25            3.4154     7.2805     3.0673 C.3     
  26 H26           -1.4348     1.7435    -0.7686 H       
  27 H27           -1.6203     1.3971     0.9714 H       
  28 H28           -1.4631     3.8891     0.3423 H       
  29 H29           -0.3177     3.3317     1.5856 H       
  30 H30           -0.4397    -3.6376     0.3788 H       
  31 H31            1.4373     3.4135     2.1642 H       
  32 H32            3.1250     3.0636     1.7197 H       
  33 H33            2.9330     4.4913    -1.0483 H       
  34 H34            3.7422     2.9342    -0.7503 H       
  35 H35            1.9662    -3.9773     0.3075 H       
  36 H36            2.2853     5.5576     3.6961 H       
  37 H37            3.9730     5.2078     3.2517 H       
  38 H38            3.7342     7.5333     4.0786 H       
  39 H39            4.2170     7.5108     2.3655 H       
  40 H40            2.5293     7.8606     2.8100 H       
@<TRIPOS>BOND
   1    1    2 1
   2    1    3 2
   3    1    4 1
   4    2    5 ar
   5    2    6 ar
   6    3    7 1
   7    3    8 1
   8    4    9 1
   9    4   26 1
  10    4   27 1
  11    5   10 ar
  12    5    8 1
  13    6   11 ar
  14    6   12 1
  15    7   14 1
  16    7   15 1
  17    7   13 1
  18    8   19 1
  19    9   13 1
  20    9   28 1
  21    9   29 1
  22   10   16 ar
  23   10   17 1
  24   11   16 ar
  25   11   30 1
  26   14   24 1
  27   14   31 1
  28   14   32 1
  29   15   18 1
  30   15   33 1
  31   15   34 1
  32   16   35 1
  33   18   20 2
  34   18   21 1
  35   21   22 1
  36   23   24 1
  37   23   25 1
  38   23   36 1
  39   23   37 1
  40   25   38 1
  41   25   39 1
  42   25   40 1

#	End of record

