#	Name: ASD05790083
#	Creating user name:	WinNT
#	Creation time:	15. 06. 2019 21:03

#	Modifying user name:	WinNT
#	Modification time:	15. 06. 2019 21:03

#	Program:	/corina/corina34_cracker 3.40 0067  02.08.2006

@<TRIPOS>MOLECULE
ASD05790083
  45   48    0    0    0
SMALL
NO_CHARGES


@<TRIPOS>ATOM
   1 C1            -0.0133     1.3744    -0.0247 C.ar    
   2 C2             0.0126    -0.0217    -0.0281 C.ar    
   3 C3             1.2367    -0.6945    -0.0291 C.ar    
   4 C4             2.4139     0.0206    -0.0266 C.ar    
   5 C5             2.3847     1.4111    -0.0232 C.ar    
   6 C6             1.1679     2.0839    -0.0222 C.ar    
   7 N7             3.5799     2.1330    -0.0207 N.am    
   8 C8             4.6550     1.6542     0.6360 C.2     
   9 O9             4.5570     0.6469     1.3094 O.2     
  10 C10            5.9533     2.3538     0.5374 C.ar    
  11 C11            7.0688     1.8605     1.2163 C.ar    
  12 C12            6.0707     3.5075    -0.2397 C.ar    
  13 C13            7.2854     4.1554    -0.3279 C.ar    
  14 C14            8.3859     3.6640     0.3518 C.ar    
  15 C15            8.2777     2.5181     1.1195 C.ar    
  16 C16           -1.2519    -0.7856    -0.0303 C.2     
  17 O17           -2.4868    -0.2541    -0.0297 O.3     
  18 N18           -1.3535    -2.0930    -0.0388 N.2     
  19 C19           -2.6621    -2.4226    -0.0379 C.2     
  20 C20           -3.3743    -1.2677    -0.0322 C.2     
  21 C21           -3.2204    -3.7975    -0.0458 C.ar    
  22 C22           -2.3668    -4.8988    -0.0546 C.ar    
  23 C23           -2.8915    -6.1753    -0.0619 C.ar    
  24 C24           -4.2620    -6.3625    -0.0605 C.ar    
  25 C25           -5.1140    -5.2728    -0.0518 C.ar    
  26 C26           -4.6002    -3.9919    -0.0386 C.ar    
  27 C27            1.1409     3.5906    -0.0185 C.3     
  28 H28           -0.9581     1.8976    -0.0285 H       
  29 H29            1.2601    -1.7743    -0.0314 H       
  30 H30            3.3607    -0.4990    -0.0270 H       
  31 H31            3.6364     2.9792    -0.4915 H       
  32 H32            6.9856     0.9663     1.8161 H       
  33 H33            5.2125     3.8918    -0.7710 H       
  34 H34            7.3777     5.0478    -0.9290 H       
  35 H35            9.3347     4.1748     0.2792 H       
  36 H36            9.1406     2.1398     1.6476 H       
  37 H37           -4.4505    -1.1778    -0.0301 H       
  38 H38           -1.2965    -4.7538    -0.0560 H       
  39 H39           -2.2308    -7.0296    -0.0691 H       
  40 H40           -4.6683    -7.3631    -0.0666 H       
  41 H41           -6.1833    -5.4247    -0.0511 H       
  42 H42           -5.2663    -3.1419    -0.0315 H       
  43 H43            1.1350     3.9564    -1.0453 H       
  44 H44            0.2442     3.9367     0.4956 H       
  45 H45            2.0239     3.9685     0.4968 H       
@<TRIPOS>BOND
   1    1    2 ar
   2    1    6 ar
   3    1   28 1
   4    2    3 ar
   5    2   16 1
   6    3    4 ar
   7    3   29 1
   8    4    5 ar
   9    4   30 1
  10    5    6 ar
  11    5    7 1
  12    6   27 1
  13    7    8 am
  14    7   31 1
  15    8    9 2
  16    8   10 1
  17   10   11 ar
  18   10   12 ar
  19   11   15 ar
  20   11   32 1
  21   12   13 ar
  22   12   33 1
  23   13   14 ar
  24   13   34 1
  25   14   15 ar
  26   14   35 1
  27   15   36 1
  28   16   17 1
  29   16   18 2
  30   17   20 1
  31   18   19 1
  32   19   20 2
  33   19   21 1
  34   20   37 1
  35   21   22 ar
  36   21   26 ar
  37   22   23 ar
  38   22   38 1
  39   23   24 ar
  40   23   39 1
  41   24   25 ar
  42   24   40 1
  43   25   26 ar
  44   25   41 1
  45   26   42 1
  46   27   43 1
  47   27   44 1
  48   27   45 1

#	End of record

