#	Name: ASD02198629
#	Creating user name:	WinNT
#	Creation time:	15. 06. 2019 20:19

#	Modifying user name:	WinNT
#	Modification time:	15. 06. 2019 20:19

#	Program:	/corina/corina34_cracker 3.40 0067  02.08.2006

@<TRIPOS>MOLECULE
ASD02198629
  55   59    0    0    0
SMALL
NO_CHARGES


@<TRIPOS>ATOM
   1 C1            -0.2453     1.3917     0.0134 C.2     
   2 C2            -0.2645     0.0881    -0.3771 C.2     
   3 N3            -1.4354    -0.5410    -0.6303 N.pl3   
   4 N4            -2.5783     0.0293    -0.5233 N.2     
   5 C5            -2.7027     1.2873    -0.1540 C.2     
   6 C6            -1.4903     2.0593     0.1502 C.2     
   7 C7            -1.3966    -1.8813    -1.0296 C.ar    
   8 C8            -2.0149    -2.2734    -2.2131 C.ar    
   9 C9            -1.9757    -3.5979    -2.6061 C.ar    
  10 C10           -1.3196    -4.5359    -1.8199 C.ar    
  11 C11           -0.7029    -4.1436    -0.6381 C.ar    
  12 C12           -0.7359    -2.8206    -0.2476 C.ar    
  13 C13           -4.0378     1.9095    -0.0426 C.2     
  14 N14           -4.5560     2.5277     1.0605 N.pl3   
  15 N15           -5.8430     2.9735     0.7346 N.2     
  16 C16           -6.1007     2.6450    -0.5062 C.2     
  17 C17           -4.9926     1.9811    -1.0330 C.2     
  18 C18           -3.9151     2.6865     2.2958 C.ar    
  19 C19           -4.0207     3.8873     2.9851 C.ar    
  20 C20           -3.3879     4.0406     4.2031 C.ar    
  21 C21           -2.6498     2.9999     4.7363 C.ar    
  22 C22           -2.5427     1.8029     4.0523 C.ar    
  23 C23           -3.1774     1.6415     2.8363 C.ar    
  24 O24           -1.5507     3.2301     0.4973 O.2     
  25 O25            0.9272     2.0315     0.2694 O.3     
  26 C26            2.1281     1.2737     0.1095 C.3     
  27 F27           -2.6533    -1.3602    -2.9771 F       
  28 N28           -1.2799    -5.8770    -2.2178 N.am    
  29 C29           -0.5271    -6.9443    -1.5421 C.3     
  30 C30           -0.8305    -8.1995    -2.3831 C.3     
  31 N31           -1.7220    -7.7061    -3.4434 N.am    
  32 C32           -1.9261    -6.3935    -3.2713 C.2     
  33 C33           -2.3001    -8.5218    -4.5142 C.3     
  34 F34           -3.3453    -7.8191    -5.1233 F       
  35 F35           -1.3150    -8.8092    -5.4651 F       
  36 O36           -2.6274    -5.7292    -4.0097 O.2     
  37 H37            0.6653    -0.4503    -0.4864 H       
  38 H38           -2.4555    -3.9033    -3.5242 H       
  39 H39           -0.1932    -4.8740    -0.0273 H       
  40 H40           -0.2559    -2.5168     0.6710 H       
  41 H41           -7.0177     2.8569    -1.0359 H       
  42 H42           -4.9023     1.5878    -2.0348 H       
  43 H43           -4.5968     4.7006     2.5691 H       
  44 H44           -3.4694     4.9744     4.7396 H       
  45 H45           -2.1556     3.1224     5.6888 H       
  46 H46           -1.9652     0.9920     4.4711 H       
  47 H47           -3.0934     0.7064     2.3026 H       
  48 H48            2.9878     1.9012     0.3446 H       
  49 H49            2.1092     0.4165     0.7825 H       
  50 H50            2.2034     0.9252    -0.9206 H       
  51 H51            0.5406    -6.7253    -1.5530 H       
  52 H52           -0.8816    -7.0741    -0.5195 H       
  53 H53            0.0866    -8.6037    -2.8117 H       
  54 H54           -1.3356    -8.9525    -1.7781 H       
  55 H55           -2.6834    -9.4523    -4.0955 H       
@<TRIPOS>BOND
   1    1    2 2
   2    1   25 1
   3    1    6 1
   4    2    3 1
   5    2   37 1
   6    3    4 1
   7    3    7 1
   8    4    5 2
   9    5    6 1
  10    5   13 1
  11    6   24 2
  12    7    8 ar
  13    7   12 ar
  14    8    9 ar
  15    8   27 1
  16    9   10 ar
  17    9   38 1
  18   10   11 ar
  19   10   28 1
  20   11   12 ar
  21   11   39 1
  22   12   40 1
  23   13   14 1
  24   13   17 2
  25   14   15 1
  26   14   18 1
  27   15   16 2
  28   16   17 1
  29   16   41 1
  30   17   42 1
  31   18   19 ar
  32   18   23 ar
  33   19   20 ar
  34   19   43 1
  35   20   21 ar
  36   20   44 1
  37   21   22 ar
  38   21   45 1
  39   22   23 ar
  40   22   46 1
  41   23   47 1
  42   25   26 1
  43   26   48 1
  44   26   49 1
  45   26   50 1
  46   28   29 1
  47   28   32 am
  48   29   30 1
  49   29   51 1
  50   29   52 1
  51   30   31 1
  52   30   53 1
  53   30   54 1
  54   31   32 am
  55   31   33 1
  56   32   36 2
  57   33   34 1
  58   33   35 1
  59   33   55 1

#	End of record

