#	Name: ASD01120139
#	Creating user name:	WinNT
#	Creation time:	15. 06. 2019 18:59

#	Modifying user name:	WinNT
#	Modification time:	15. 06. 2019 18:59

#	Program:	/corina/corina34_cracker 3.40 0067  02.08.2006

@<TRIPOS>MOLECULE
ASD01120139
  42   44    0    0    0
SMALL
NO_CHARGES


@<TRIPOS>ATOM
   1 C1            -0.0581     1.4175     0.6798 C.ar    
   2 C2            -0.0448     0.0187     0.7694 C.ar    
   3 C3            -1.2116    -0.7046     0.6567 C.ar    
   4 C4            -2.4226    -0.0327     0.4508 C.ar    
   5 C5            -2.4282     1.3815     0.3618 C.ar    
   6 C6            -1.2290     2.0934     0.4844 C.ar    
   7 N7            -3.5867    -0.6907     0.3339 N.ar    
   8 C8            -4.7055    -0.0337     0.1410 C.ar    
   9 N9            -4.7591     1.2857     0.0514 N.ar    
  10 C10           -3.6674     2.0324     0.1530 C.ar    
  11 C11           -6.0860     3.4970     0.6139 C.ar    
  12 C12           -4.9821     4.0391    -0.0318 C.ar    
  13 C13           -5.1170     5.2103    -0.7666 C.ar    
  14 C14           -6.3473     5.8316    -0.8528 C.ar    
  15 C15           -7.4443     5.2892    -0.2088 C.ar    
  16 C16           -7.3134     4.1237     0.5239 C.ar    
  17 O17            1.1068     2.1097     0.7942 O.3     
  18 C18            1.0282     3.5330     0.6942 C.3     
  19 C19            2.4274     4.1330     0.8462 C.3     
  20 O20            1.1316    -0.6307     0.9692 O.3     
  21 C21            1.0798    -2.0564     1.0517 C.3     
  22 C22            2.4899    -2.6058     1.2768 C.3     
  23 N23           -3.7382     3.4079     0.0579 N.pl3   
  24 H24           -1.1925    -1.7822     0.7262 H       
  25 H25           -1.2286     3.1713     0.4175 H       
  26 H26           -5.6241    -0.5946     0.0510 H       
  27 H27           -5.9855     2.5842     1.1823 H       
  28 H28           -4.2606     5.6346    -1.2695 H       
  29 H29           -6.4528     6.7424    -1.4236 H       
  30 H30           -8.4053     5.7771    -0.2778 H       
  31 H31           -8.1720     3.7029     1.0260 H       
  32 H32            0.6191     3.8069    -0.2783 H       
  33 H33            0.3805     3.9174     1.4821 H       
  34 H34            2.3675     5.2187     0.7699 H       
  35 H35            2.8365     3.8591     1.8187 H       
  36 H36            3.0751     3.7486     0.0583 H       
  37 H37            0.4388    -2.3491     1.8833 H       
  38 H38            0.6767    -2.4597     0.1228 H       
  39 H39            3.1309    -2.3130     0.4453 H       
  40 H40            2.8930    -2.2025     2.2058 H       
  41 H41            2.4504    -3.6932     1.3398 H       
  42 H42           -2.9247     3.9363     0.0535 H       
@<TRIPOS>BOND
   1    1    2 ar
   2    1   17 1
   3    1    6 ar
   4    2    3 ar
   5    2   20 1
   6    3    4 ar
   7    3   24 1
   8    4    5 ar
   9    4    7 ar
  10    5    6 ar
  11    5   10 ar
  12    6   25 1
  13    7    8 ar
  14    8    9 ar
  15    8   26 1
  16    9   10 ar
  17   10   23 1
  18   11   12 ar
  19   11   16 ar
  20   11   27 1
  21   12   13 ar
  22   12   23 1
  23   13   14 ar
  24   13   28 1
  25   14   15 ar
  26   14   29 1
  27   15   16 ar
  28   15   30 1
  29   16   31 1
  30   17   18 1
  31   18   19 1
  32   18   32 1
  33   18   33 1
  34   19   34 1
  35   19   35 1
  36   19   36 1
  37   20   21 1
  38   21   22 1
  39   21   37 1
  40   21   38 1
  41   22   39 1
  42   22   40 1
  43   22   41 1
  44   23   42 1

#	End of record

