#	Name: ASD01912571
#	Creating user name:	WinNT
#	Creation time:	15. 06. 2019 19:59

#	Modifying user name:	WinNT
#	Modification time:	15. 06. 2019 19:59

#	Program:	/corina/corina34_cracker 3.40 0067  02.08.2006

@<TRIPOS>MOLECULE
ASD01912571
  41   44    0    0    0
SMALL
NO_CHARGES


@<TRIPOS>ATOM
   1 C1            -0.0187     1.5272     0.0104 C.3     
   2 C2             0.0021    -0.0041     0.0020 C.3     
   3 C3             1.4179     2.0529    -0.0005 C.3     
   4 C4             2.1379     1.5713    -1.2613 C.3     
   5 C5             2.1667     0.0402    -1.2748 C.3     
   6 C6             0.7436    -0.4980    -1.2321 C.3     
   7 C7             0.7498    -2.0384    -1.2751 C.3     
   8 C8             0.5712    -2.3246    -2.7554 C.2     
   9 N9             0.1743    -1.2342    -3.3337 N.2     
  10 O10            0.0306    -0.1550    -2.4288 O.3     
  11 O11            1.4075     3.4854     0.0318 O.3     
  12 C12            2.1167     3.8918     1.2199 C.3     
  13 C13            2.9867     2.6532     1.5498 C.3     
  14 O14            2.1122     1.5669     1.1603 O.3     
  15 C15            0.8021    -3.5815    -3.4015 C.1     
  16 C16            0.9913    -4.6120    -3.9312 C.1     
  17 C17            1.2222    -5.8689    -4.5773 C.ar    
  18 C18            1.0189    -5.9985    -5.9540 C.ar    
  19 C19            1.6577    -6.9709    -3.8348 C.ar    
  20 C20            1.8787    -8.1784    -4.4628 C.ar    
  21 C21            1.6708    -8.3026    -5.8252 C.ar    
  22 C22            1.2443    -7.2144    -6.5699 C.ar    
  23 F23            1.0433    -7.3442    -7.8995 F       
  24 H24           -0.5451     1.8888    -0.8729 H       
  25 H25           -0.5281     1.8792     0.9075 H       
  26 H26            0.5074    -0.3651     0.8978 H       
  27 H27           -1.0206    -0.3808    -0.0140 H       
  28 H28            1.6088     1.9330    -2.1430 H       
  29 H29            3.1584     1.9544    -1.2663 H       
  30 H30            2.6583    -0.3056    -2.1841 H       
  31 H31            2.7172    -0.3201    -0.4057 H       
  32 H32            1.7008    -2.4321    -0.9165 H       
  33 H33           -0.0812    -2.4454    -0.6989 H       
  34 H34            2.7438     4.7598     1.0162 H       
  35 H35            1.4201     4.1006     2.0319 H       
  36 H36            3.9013     2.6496     0.9567 H       
  37 H37            3.2140     2.6084     2.6149 H       
  38 H38            0.6862    -5.1507    -6.5345 H       
  39 H39            1.8210    -6.8763    -2.7714 H       
  40 H40            2.2153    -9.0296    -3.8897 H       
  41 H41            1.8460    -9.2510    -6.3113 H       
@<TRIPOS>BOND
   1    1    2 1
   2    1    3 1
   3    1   24 1
   4    1   25 1
   5    2    6 1
   6    2   26 1
   7    2   27 1
   8    3    4 1
   9    3   11 1
  10    3   14 1
  11    4    5 1
  12    4   28 1
  13    4   29 1
  14    5    6 1
  15    5   30 1
  16    5   31 1
  17    6    7 1
  18    6   10 1
  19    7    8 1
  20    7   32 1
  21    7   33 1
  22    8    9 2
  23    8   15 1
  24    9   10 1
  25   11   12 1
  26   12   13 1
  27   12   34 1
  28   12   35 1
  29   13   14 1
  30   13   36 1
  31   13   37 1
  32   15   16 3
  33   16   17 1
  34   17   18 ar
  35   17   19 ar
  36   18   22 ar
  37   18   38 1
  38   19   20 ar
  39   19   39 1
  40   20   21 ar
  41   20   40 1
  42   21   22 ar
  43   21   41 1
  44   22   23 1

#	End of record

