#	Name: ASD02030328
#	Creating user name:	WinNT
#	Creation time:	15. 06. 2019 20:15

#	Modifying user name:	WinNT
#	Modification time:	15. 06. 2019 20:15

#	Program:	/corina/corina34_cracker 3.40 0067  02.08.2006

@<TRIPOS>MOLECULE
ASD02030328
  41   42    0    0    0
SMALL
NO_CHARGES


@<TRIPOS>ATOM
   1 C1            -0.0144     1.2110     0.0087 C.2     
   2 O2             0.1112     0.0290    -0.2441 O.2     
   3 C3             1.1588     2.1128    -0.0640 C.ar    
   4 C4             2.4425     1.5818     0.0194 C.ar    
   5 C5             3.5337     2.4359    -0.0498 C.ar    
   6 C6             3.3038     3.7921    -0.2002 C.ar    
   7 C7             1.9934     4.2568    -0.2771 C.ar    
   8 N8             0.9757     3.4198    -0.2136 N.ar    
   9 O9             1.7608     5.5852    -0.4246 O.3     
  10 C10            0.3954     6.0006    -0.4973 C.3     
  11 N11           -1.2221     1.7025     0.3498 N.am    
  12 C12           -2.4273     0.8628     0.2757 C.3     
  13 C13           -3.4971     1.6161    -0.5220 C.3     
  14 N14           -3.7011     2.9443     0.0713 N.3     
  15 C15           -2.4812     3.7584    -0.0126 C.3     
  16 C16           -1.3688     3.0911     0.8118 C.3     
  17 C17           -3.0378     1.7702    -1.9733 C.3     
  18 C18           -4.8103     0.8319    -0.4821 C.3     
  19 O19           -5.8076     1.5348    -1.2261 O.3     
  20 C20           -7.0795     0.8840    -1.2523 C.3     
  21 H21            2.5876     0.5181     0.1370 H       
  22 H22            4.5407     2.0506     0.0126 H       
  23 H23            4.1319     4.4829    -0.2570 H       
  24 H24           -0.1212     5.7126     0.4183 H       
  25 H25            0.3508     7.0833    -0.6145 H       
  26 H26           -0.0848     5.5226    -1.3511 H       
  27 H27           -2.1896    -0.0754    -0.2257 H       
  28 H28           -2.7952     0.6607     1.2816 H       
  29 H29           -4.4815     3.4169    -0.3597 H       
  30 H30           -2.1681     3.8384    -1.0536 H       
  31 H31           -2.6799     4.7535     0.3854 H       
  32 H32           -1.6369     3.0991     1.8683 H       
  33 H33           -0.4310     3.6269     0.6651 H       
  34 H34           -2.8842     0.7844    -2.4124 H       
  35 H35           -3.7990     2.3060    -2.5404 H       
  36 H36           -2.1029     2.3299    -2.0010 H       
  37 H37           -4.6580    -0.1544    -0.9202 H       
  38 H38           -5.1375     0.7236     0.5520 H       
  39 H39           -6.9743    -0.1013    -1.7064 H       
  40 H40           -7.4538     0.7767    -0.2342 H       
  41 H41           -7.7807     1.4802    -1.8362 H       
@<TRIPOS>BOND
   1    1    2 2
   2    1    3 1
   3    1   11 am
   4    3    4 ar
   5    3    8 ar
   6    4    5 ar
   7    4   21 1
   8    5    6 ar
   9    5   22 1
  10    6    7 ar
  11    6   23 1
  12    7    8 ar
  13    7    9 1
  14    9   10 1
  15   10   24 1
  16   10   25 1
  17   10   26 1
  18   11   12 1
  19   11   16 1
  20   12   13 1
  21   12   27 1
  22   12   28 1
  23   13   14 1
  24   13   17 1
  25   13   18 1
  26   14   15 1
  27   14   29 1
  28   15   16 1
  29   15   30 1
  30   15   31 1
  31   16   32 1
  32   16   33 1
  33   17   34 1
  34   17   35 1
  35   17   36 1
  36   18   19 1
  37   18   37 1
  38   18   38 1
  39   19   20 1
  40   20   39 1
  41   20   40 1
  42   20   41 1

#	End of record

