#	Name: ASD01120029
#	Creating user name:	WinNT
#	Creation time:	15. 06. 2019 18:58

#	Modifying user name:	WinNT
#	Modification time:	15. 06. 2019 18:58

#	Program:	/corina/corina34_cracker 3.40 0067  02.08.2006

@<TRIPOS>MOLECULE
ASD01120029
  48   51    0    0    0
SMALL
NO_CHARGES


@<TRIPOS>ATOM
   1 C1            -0.0905     1.3502     0.6499 C.ar    
   2 C2            -0.0522    -0.0390     0.4657 C.ar    
   3 C3            -1.1844    -0.7311     0.0965 C.ar    
   4 C4            -2.3851    -0.0371    -0.0962 C.ar    
   5 C5            -2.4161     1.3670     0.0919 C.ar    
   6 C6            -1.2525     2.0461     0.4723 C.ar    
   7 N7            -3.5157    -0.6645    -0.4564 N.ar    
   8 C8            -4.6257     0.0127    -0.6300 C.ar    
   9 N9            -4.7020     1.3238    -0.4662 N.ar    
  10 C10           -3.6440     2.0408    -0.1106 C.ar    
  11 N11           -3.7382     3.4079     0.0570 N.pl3   
  12 C12           -4.9822     4.0392    -0.0337 C.ar    
  13 O13            1.0403     2.0114     1.0149 O.3     
  14 O14            1.1142    -0.7097     0.6529 O.3     
  15 C15           -6.1277     3.3762     0.3790 C.ar    
  16 C16           -7.3662     4.0105     0.2869 C.ar    
  17 C17           -7.4444     5.3085    -0.2200 C.ar    
  18 C18           -6.2982     5.9604    -0.6284 C.ar    
  19 C19           -5.0701     5.3340    -0.5324 C.ar    
  20 C20           -8.5928     3.3098     0.7246 C.2     
  21 C21            0.9374     3.4263     1.1871 C.3     
  22 C22            2.2999     3.9908     1.5945 C.3     
  23 C23            1.0891    -2.1240     0.4500 C.3     
  24 C24            2.4831    -2.7006     0.7050 C.3     
  25 C25           -9.8481     3.8062     0.6896 C.2     
  26 N26          -10.7676     2.9800     1.1369 N.2     
  27 C27          -10.3729     1.8209     1.5467 C.2     
  28 S28           -8.6780     1.6755     1.3777 S.3     
  29 H29           -1.1462    -1.8013    -0.0436 H       
  30 H30           -1.2714     3.1163     0.6167 H       
  31 H31           -5.5172    -0.5237    -0.9198 H       
  32 H32           -2.9412     3.9305     0.2377 H       
  33 H33           -6.0612     2.3718     0.7702 H       
  34 H34           -8.4019     5.8028    -0.2932 H       
  35 H35           -6.3610     6.9646    -1.0207 H       
  36 H36           -4.1767     5.8491    -0.8530 H       
  37 H37            0.6198     3.8842     0.2503 H       
  38 H38            0.2060     3.6454     1.9649 H       
  39 H39            2.2214     5.0700     1.7258 H       
  40 H40            2.6175     3.5329     2.5313 H       
  41 H41            3.0313     3.7717     0.8166 H       
  42 H42            0.3767    -2.5773     1.1392 H       
  43 H43            0.7892    -2.3386    -0.5757 H       
  44 H44            3.1955    -2.2473     0.0158 H       
  45 H45            2.7830    -2.4860     1.7308 H       
  46 H46            2.4639    -3.7794     0.5502 H       
  47 H47          -10.0770     4.7970     0.3259 H       
  48 H48          -11.0219     1.0511     1.9373 H       
@<TRIPOS>BOND
   1    1    2 ar
   2    1   13 1
   3    1    6 ar
   4    2    3 ar
   5    2   14 1
   6    3    4 ar
   7    3   29 1
   8    4    5 ar
   9    4    7 ar
  10    5    6 ar
  11    5   10 ar
  12    6   30 1
  13    7    8 ar
  14    8    9 ar
  15    8   31 1
  16    9   10 ar
  17   10   11 1
  18   11   12 1
  19   11   32 1
  20   12   15 ar
  21   12   19 ar
  22   13   21 1
  23   14   23 1
  24   15   16 ar
  25   15   33 1
  26   16   17 ar
  27   16   20 1
  28   17   18 ar
  29   17   34 1
  30   18   19 ar
  31   18   35 1
  32   19   36 1
  33   20   25 2
  34   20   28 1
  35   21   22 1
  36   21   37 1
  37   21   38 1
  38   22   39 1
  39   22   40 1
  40   22   41 1
  41   23   24 1
  42   23   42 1
  43   23   43 1
  44   24   44 1
  45   24   45 1
  46   24   46 1
  47   25   26 1
  48   25   47 1
  49   26   27 2
  50   27   28 1
  51   27   48 1

#	End of record

