#	Name: ASD03331629
#	Creating user name:	WinNT
#	Creation time:	15. 06. 2019 20:39

#	Modifying user name:	WinNT
#	Modification time:	15. 06. 2019 20:39

#	Program:	/corina/corina34_cracker 3.40 0067  02.08.2006

@<TRIPOS>MOLECULE
ASD03331629
  58   61    0    0    0
SMALL
NO_CHARGES


@<TRIPOS>ATOM
   1 C1            -0.0179     1.4666     0.0101 C.3     
   2 N2             0.0021    -0.0041     0.0020 N.am    
   3 C3             0.5791    -0.6826    -1.1742 C.3     
   4 C4             1.8395     0.0634    -1.5377 C.2     
   5 N5             2.1950     1.2602    -1.0064 N.pl3   
   6 C6             1.4218     1.9926    -0.0008 C.3     
   7 C7             2.8089    -0.2955    -2.4174 C.2     
   8 N8             3.7412     0.6839    -2.4210 N.2     
   9 C9             3.3780     1.6225    -1.5773 C.2     
  10 C10            4.1279     2.8662    -1.2944 C.ar    
  11 C11            2.8401    -1.5296    -3.2222 C.2     
  12 O12            1.9372    -2.3391    -3.1293 O.2     
  13 C13            5.1494     3.2783    -2.1505 C.ar    
  14 N14            3.8692    -1.7611    -4.0612 N.am    
  15 S15           -0.6044    -0.8723     1.2751 S.o2    
  16 O16            0.0335    -2.1414     1.2354 O.2     
  17 O17           -0.5560    -0.0132     2.4060 O.2     
  18 C18           -2.3104    -1.1622     0.9431 C.ar    
  19 C19           -2.6966    -2.2956     0.2522 C.ar    
  20 C20           -4.0344    -2.5243    -0.0084 C.ar    
  21 C21           -4.9880    -1.6178     0.4229 C.ar    
  22 C22           -4.5999    -0.4830     1.1149 C.ar    
  23 C23           -3.2620    -0.2591     1.3788 C.ar    
  24 C24            3.9002    -2.9879    -4.8613 C.3     
  25 C25            4.7340    -2.7615    -6.0960 C.2     
  26 N26            4.9047    -3.7589    -6.9861 N.am    
  27 F27           -6.2961    -1.8401     0.1684 F       
  28 C28            4.5110    -4.1209    -4.0341 C.3     
  29 O29            5.2514    -1.6816    -6.2886 O.2     
  30 C30            5.7153    -3.5388    -8.1864 C.3     
  31 C31            5.8447     4.4393    -1.8813 C.ar    
  32 C32            5.5311     5.1939    -0.7650 C.ar    
  33 C33            4.5195     4.7903     0.0881 C.ar    
  34 C34            3.8126     3.6346    -0.1734 C.ar    
  35 H35           -0.5441     1.8282    -0.8733 H       
  36 H36           -0.5271     1.8186     0.9072 H       
  37 H37            0.8171    -1.7172    -0.9273 H       
  38 H38           -0.1254    -0.6499    -2.0053 H       
  39 H39            1.4195     3.0547    -0.2457 H       
  40 H40            1.8705     1.8456     0.9816 H       
  41 H41            5.3957     2.6897    -3.0219 H       
  42 H42            4.5892    -1.1154    -4.1352 H       
  43 H43           -1.9526    -3.0024    -0.0844 H       
  44 H44           -4.3359    -3.4096    -0.5485 H       
  45 H45           -5.3429     0.2248     1.4517 H       
  46 H46           -2.9591     0.6260     1.9186 H       
  47 H47            2.8850    -3.2573    -5.1528 H       
  48 H48            4.4909    -4.6226    -6.8320 H       
  49 H49            5.5261    -3.8515    -3.7426 H       
  50 H50            3.9079    -4.2847    -3.1411 H       
  51 H51            4.5340    -5.0337    -4.6294 H       
  52 H52            5.2802    -2.7316    -8.7757 H       
  53 H53            6.7305    -3.2694    -7.8949 H       
  54 H54            5.7384    -4.4516    -8.7817 H       
  55 H55            6.6358     4.7594    -2.5433 H       
  56 H56            6.0785     6.1017    -0.5585 H       
  57 H57            4.2798     5.3833     0.9583 H       
  58 H58            3.0231     3.3206     0.4933 H       
@<TRIPOS>BOND
   1    1    2 1
   2    1    6 1
   3    1   35 1
   4    1   36 1
   5    2    3 1
   6    2   15 am
   7    3    4 1
   8    3   37 1
   9    3   38 1
  10    4    5 1
  11    4    7 2
  12    5    6 1
  13    5    9 1
  14    6   39 1
  15    6   40 1
  16    7    8 1
  17    7   11 1
  18    8    9 2
  19    9   10 1
  20   10   13 ar
  21   10   34 ar
  22   11   12 2
  23   11   14 am
  24   13   31 ar
  25   13   41 1
  26   14   24 1
  27   14   42 1
  28   15   16 2
  29   15   17 2
  30   15   18 1
  31   18   19 ar
  32   18   23 ar
  33   19   20 ar
  34   19   43 1
  35   20   21 ar
  36   20   44 1
  37   21   22 ar
  38   21   27 1
  39   22   23 ar
  40   22   45 1
  41   23   46 1
  42   24   25 1
  43   24   28 1
  44   24   47 1
  45   25   26 am
  46   25   29 2
  47   26   30 1
  48   26   48 1
  49   28   49 1
  50   28   50 1
  51   28   51 1
  52   30   52 1
  53   30   53 1
  54   30   54 1
  55   31   32 ar
  56   31   55 1
  57   32   33 ar
  58   32   56 1
  59   33   34 ar
  60   33   57 1
  61   34   58 1

#	End of record

