#	Name: ASD00431074
#	Creating user name:	WinNT
#	Creation time:	15. 06. 2019 18:35

#	Modifying user name:	WinNT
#	Modification time:	15. 06. 2019 18:35

#	Program:	/corina/corina34_cracker 3.40 0067  02.08.2006

@<TRIPOS>MOLECULE
ASD00431074
  53   56    0    0    0
SMALL
NO_CHARGES


@<TRIPOS>ATOM
   1 C1            -0.7432     1.2259     0.1395 C.2     
   2 C2            -0.8549    -0.2768     0.1612 C.3     
   3 O3             0.3489     1.7525     0.1093 O.2     
   4 N4            -1.8571     1.9847     0.1480 N.am    
   5 C5            -1.7485     3.4455     0.1269 C.3     
   6 C6            -3.0271     4.0688    -0.4718 C.3     
   7 C7            -3.8882     4.3285     0.7823 C.3     
   8 C8            -2.8980     4.4945     1.9155 C.ar    
   9 C9            -3.0631     5.0453     3.1725 C.ar    
  10 C10           -1.9907     5.0898     4.0629 C.ar    
  11 C11           -0.7514     4.5758     3.6767 C.ar    
  12 C12           -0.5981     4.0295     2.4210 C.ar    
  13 C13           -1.6671     3.9867     1.5388 C.ar    
  14 S14           -3.6525     6.3676     6.0523 S.3     
  15 C15           -2.8612     6.7269     7.5244 C.2     
  16 N16           -1.6223     6.3473     7.4738 N.2     
  17 C17           -1.2135     5.7822     6.3575 C.2     
  18 C18           -2.1650     5.6782     5.4074 C.2     
  19 O19           -3.4449     7.3237     8.5912 O.3     
  20 C20           -2.7130     7.4531     9.7297 C.ar    
  21 C21           -1.6115     8.2961     9.7542 C.ar    
  22 C22           -0.8681     8.4274    10.9108 C.ar    
  23 C23           -1.2228     7.7166    12.0478 C.ar    
  24 C24           -2.3242     6.8737    12.0234 C.ar    
  25 C25           -3.0711     6.7466    10.8686 C.ar    
  26 O26           -0.4906     7.8456    13.1863 O.3     
  27 C27           -0.9587     7.1466    14.3414 C.3     
  28 C28            0.2045     6.9270    15.3108 C.3     
  29 C29           -2.0477     7.9715    15.0302 C.3     
  30 H30           -0.8598    -0.6258     1.1938 H       
  31 H31           -1.7802    -0.5795    -0.3290 H       
  32 H32           -0.0056    -0.7119    -0.3654 H       
  33 H33           -2.7307     1.5635     0.1682 H       
  34 H34           -0.8741     3.7508    -0.4477 H       
  35 H35           -2.7989     5.0028    -0.9853 H       
  36 H36           -3.5223     3.3673    -1.1433 H       
  37 H37           -4.4750     5.2384     0.6564 H       
  38 H38           -4.5433     3.4786     0.9739 H       
  39 H39           -4.0241     5.4414     3.4657 H       
  40 H40            0.0845     4.6066     4.3599 H       
  41 H41            0.3606     3.6322     2.1220 H       
  42 H42           -0.2019     5.4319     6.2144 H       
  43 H43           -1.3350     8.8493     8.8688 H       
  44 H44           -0.0103     9.0834    10.9298 H       
  45 H45           -2.6001     6.3200    12.9087 H       
  46 H46           -3.9313     6.0937    10.8510 H       
  47 H47           -1.3686     6.1823    14.0413 H       
  48 H48            0.6144     7.8913    15.6109 H       
  49 H49           -0.1526     6.3938    16.1919 H       
  50 H50            0.9804     6.3393    14.8201 H       
  51 H51           -2.8764     8.1280    14.3396 H       
  52 H52           -2.4048     7.4384    15.9113 H       
  53 H53           -1.6379     8.9359    15.3303 H       
@<TRIPOS>BOND
   1    1    2 1
   2    1    3 2
   3    1    4 am
   4    2   30 1
   5    2   31 1
   6    2   32 1
   7    4    5 1
   8    4   33 1
   9    5    6 1
  10    5   13 1
  11    5   34 1
  12    6    7 1
  13    6   35 1
  14    6   36 1
  15    7    8 1
  16    7   37 1
  17    7   38 1
  18    8    9 ar
  19    8   13 ar
  20    9   10 ar
  21    9   39 1
  22   10   11 ar
  23   10   18 1
  24   11   12 ar
  25   11   40 1
  26   12   13 ar
  27   12   41 1
  28   14   15 1
  29   14   18 1
  30   15   16 2
  31   15   19 1
  32   16   17 1
  33   17   18 2
  34   17   42 1
  35   19   20 1
  36   20   21 ar
  37   20   25 ar
  38   21   22 ar
  39   21   43 1
  40   22   23 ar
  41   22   44 1
  42   23   24 ar
  43   23   26 1
  44   24   25 ar
  45   24   45 1
  46   25   46 1
  47   26   27 1
  48   27   28 1
  49   27   29 1
  50   27   47 1
  51   28   48 1
  52   28   49 1
  53   28   50 1
  54   29   51 1
  55   29   52 1
  56   29   53 1

#	End of record

