#	Name: ASD03331192
#	Creating user name:	WinNT
#	Creation time:	15. 06. 2019 20:38

#	Modifying user name:	WinNT
#	Modification time:	15. 06. 2019 20:38

#	Program:	/corina/corina34_cracker 3.40 0067  02.08.2006

@<TRIPOS>MOLECULE
ASD03331192
  57   62    0    0    0
SMALL
NO_CHARGES


@<TRIPOS>ATOM
   1 N1            -0.0459     1.4956     0.5698 N.am    
   2 C2             0.0019     0.1506     1.1632 C.3     
   3 C3             0.5966    -0.8151     0.1327 C.3     
   4 N4             1.8894    -0.2950    -0.3322 N.3     
   5 C5             1.7288     0.9911    -1.0237 C.3     
   6 C6             1.1805     2.0309    -0.0406 C.3     
   7 C7            -1.1849     2.2161     0.5803 C.2     
   8 O8            -2.2139     1.7207     0.9974 O.2     
   9 N9            -1.1831     3.4859     0.1284 N.am    
  10 C10           -2.3851     4.1963     0.0330 C.ar    
  11 C11           -2.4015     5.5681     0.2481 C.ar    
  12 C12           -3.5892     6.2664     0.1527 C.ar    
  13 C13           -4.7613     5.6010    -0.1566 C.ar    
  14 C14           -4.7483     4.2350    -0.3714 C.ar    
  15 C15           -3.5629     3.5318    -0.2826 C.ar    
  16 C16            2.5723    -1.2724    -1.1902 C.3     
  17 C17            3.7648    -0.6215    -1.8425 C.2     
  18 C18            4.8850    -0.4759    -1.1768 C.2     
  19 C19            6.0451     0.1622    -1.8264 C.2     
  20 C20            5.9827     0.5908    -3.0642 C.2     
  21 C21            4.7201     0.4249    -3.8111 C.2     
  22 C22            3.6837    -0.1483    -3.2374 C.2     
  23 C23            7.2835     0.3065    -1.0425 C.2     
  24 C24            8.4436     0.9447    -1.6921 C.2     
  25 C25            8.2890     1.3973    -3.0857 C.2     
  26 C26            7.1423     1.2261    -3.7074 C.2     
  27 C27            5.0397    -0.9289     0.2168 C.2     
  28 C28            6.1864    -0.7574     0.8385 C.2     
  29 C29            7.3459    -0.1221     0.1953 C.2     
  30 C30            8.6084     0.0443     0.9423 C.2     
  31 C31            9.6463     0.6131     0.3671 C.2     
  32 C32            9.5634     1.0914    -1.0261 C.2     
  33 H33            0.6285     0.1659     2.0549 H       
  34 H34           -1.0063    -0.1697     1.4260 H       
  35 H35            0.7419    -1.7929     0.5920 H       
  36 H36           -0.0837    -0.9080    -0.7138 H       
  37 H37            2.6951     1.3233    -1.4030 H       
  38 H38            1.0326     0.8731    -1.8541 H       
  39 H39            0.9515     2.9537    -0.5736 H       
  40 H40            1.9203     2.2269     0.7355 H       
  41 H41           -0.3488     3.9073    -0.1307 H       
  42 H42           -1.4865     6.0883     0.4900 H       
  43 H43           -3.6027     7.3332     0.3202 H       
  44 H44           -5.6889     6.1492    -0.2303 H       
  45 H45           -5.6653     3.7181    -0.6128 H       
  46 H46           -3.5526     2.4657    -0.4549 H       
  47 H47            2.9044    -2.1167    -0.5862 H       
  48 H48            1.8845    -1.6240    -1.9592 H       
  49 H49            4.6480     0.7712    -4.8315 H       
  50 H50            2.7633    -0.2662    -3.7901 H       
  51 H51            9.1158     1.8690    -3.5961 H       
  52 H52            7.0492     1.5648    -4.7287 H       
  53 H53            4.2130    -1.4006     0.7271 H       
  54 H54            6.2795    -1.0963     1.8597 H       
  55 H55            8.6803    -0.3013     1.9630 H       
  56 H56           10.5665     0.7314     0.9198 H       
  57 H57           10.4183     1.5570    -1.4938 H       
@<TRIPOS>BOND
   1    1    2 1
   2    1    6 1
   3    1    7 am
   4    2    3 1
   5    2   33 1
   6    2   34 1
   7    3    4 1
   8    3   35 1
   9    3   36 1
  10    4    5 1
  11    4   16 1
  12    5    6 1
  13    5   37 1
  14    5   38 1
  15    6   39 1
  16    6   40 1
  17    7    8 2
  18    7    9 am
  19    9   10 1
  20    9   41 1
  21   10   11 ar
  22   10   15 ar
  23   11   12 ar
  24   11   42 1
  25   12   13 ar
  26   12   43 1
  27   13   14 ar
  28   13   44 1
  29   14   15 ar
  30   14   45 1
  31   15   46 1
  32   16   17 1
  33   16   47 1
  34   16   48 1
  35   17   18 2
  36   17   22 1
  37   18   19 1
  38   18   27 1
  39   19   20 2
  40   19   23 1
  41   20   21 1
  42   20   26 1
  43   21   22 2
  44   21   49 1
  45   22   50 1
  46   23   24 1
  47   23   29 2
  48   24   25 1
  49   24   32 2
  50   25   26 2
  51   25   51 1
  52   26   52 1
  53   27   28 2
  54   27   53 1
  55   28   29 1
  56   28   54 1
  57   29   30 1
  58   30   31 2
  59   30   55 1
  60   31   32 1
  61   31   56 1
  62   32   57 1

#	End of record

