#	Name: ASD00170716
#	Creating user name:	WinNT
#	Creation time:	15. 06. 2019 18:32

#	Modifying user name:	WinNT
#	Modification time:	15. 06. 2019 18:32

#	Program:	/corina/corina34_cracker 3.40 0067  02.08.2006

@<TRIPOS>MOLECULE
ASD00170716
  32   34    0    0    0
SMALL
NO_CHARGES


@<TRIPOS>ATOM
   1 C1            -0.0144     1.2133     0.0087 C.2     
   2 O2             0.6853     1.2360    -0.9874 O.2     
   3 C3             0.4342     0.4779     1.2110 C.ar    
   4 C4             1.6032    -0.2839     1.1712 C.ar    
   5 C5             2.0164    -0.9671     2.2962 C.ar    
   6 C6             1.2745    -0.8987     3.4622 C.ar    
   7 C7             0.1146    -0.1457     3.5083 C.ar    
   8 C8            -0.3064     0.5472     2.3922 C.ar    
   9 C9            -2.5133     1.2763    -0.0836 C.2     
  10 C10           -1.2970     1.9189     0.0185 C.2     
  11 C11           -1.4056     3.3072     0.1327 C.2     
  12 C12           -2.6697     3.7534     0.1215 C.2     
  13 S13           -3.7882     2.4088    -0.0367 S.3     
  14 C14           -4.7383     6.8827     0.3091 C.ar    
  15 C15           -4.4147     5.5469     0.2069 C.ar    
  16 C16           -3.0648     5.1718     0.2275 C.ar    
  17 C17           -2.1006     6.1808     0.3520 C.ar    
  18 C18           -2.5144     7.4919     0.4485 C.ar    
  19 N19           -3.7975     7.8015     0.4249 N.ar    
  20 N20           -2.6753    -0.0856    -0.2113 N.pl3   
  21 H21            2.1827    -0.3387     0.2615 H       
  22 H22            2.9206    -1.5568     2.2667 H       
  23 H23            1.6022    -1.4357     4.3401 H       
  24 H24           -0.4603    -0.0970     4.4213 H       
  25 H25           -1.2095     1.1382     2.4307 H       
  26 H26           -0.5502     3.9604     0.2222 H       
  27 H27           -5.7757     7.1823     0.2897 H       
  28 H28           -5.1897     4.8007     0.1128 H       
  29 H29           -1.0491     5.9348     0.3724 H       
  30 H30           -1.7789     8.2768     0.5448 H       
  31 H31           -1.8986    -0.6663    -0.2347 H       
  32 H32           -3.5659    -0.4640    -0.2779 H       
@<TRIPOS>BOND
   1    1    2 2
   2    1    3 1
   3    1   10 1
   4    3    4 ar
   5    3    8 ar
   6    4    5 ar
   7    4   21 1
   8    5    6 ar
   9    5   22 1
  10    6    7 ar
  11    6   23 1
  12    7    8 ar
  13    7   24 1
  14    8   25 1
  15    9   10 2
  16    9   13 1
  17    9   20 1
  18   10   11 1
  19   11   12 2
  20   11   26 1
  21   12   13 1
  22   12   16 1
  23   14   15 ar
  24   14   19 ar
  25   14   27 1
  26   15   16 ar
  27   15   28 1
  28   16   17 ar
  29   17   18 ar
  30   17   29 1
  31   18   19 ar
  32   18   30 1
  33   20   31 1
  34   20   32 1

#	End of record

