#	Name: ASD01901034
#	Creating user name:	WinNT
#	Creation time:	15. 06. 2019 19:53

#	Modifying user name:	WinNT
#	Modification time:	15. 06. 2019 19:53

#	Program:	/corina/corina34_cracker 3.40 0067  02.08.2006

@<TRIPOS>MOLECULE
ASD01901034
  23   24    0    0    0
SMALL
NO_CHARGES


@<TRIPOS>ATOM
   1 C1            -0.0159     1.3189     0.0093 C.ar    
   2 N2             0.0021    -0.0041     0.0020 N.ar    
   3 C3             1.1615    -0.6668    -0.0126 C.ar    
   4 C4             2.3599     0.0636    -0.0201 C.ar    
   5 C5             2.2887     1.4425    -0.0120 C.ar    
   6 N6             1.1017     2.0315     0.0024 N.ar    
   7 N7            -1.2340     1.9762     0.0186 N.pl3   
   8 C8             1.1821    -2.1360    -0.0202 C.2     
   9 C9             0.0230    -2.8270    -0.0124 C.2     
  10 C10            0.0435    -4.2903    -0.0200 C.2     
  11 C11           -1.0590    -5.0959    -0.0133 C.2     
  12 C12           -0.7789    -6.4426    -0.0233 C.2     
  13 C13            0.5227    -6.7544    -0.0379 C.2     
  14 S14            1.4921    -5.2876    -0.0468 S.3     
  15 H15            3.3148    -0.4407    -0.0315 H       
  16 H16            3.1916     2.0352    -0.0171 H       
  17 H17           -2.0597     1.4673     0.0197 H       
  18 H18           -1.2619     2.9458     0.0240 H       
  19 H19            2.1248    -2.6628    -0.0320 H       
  20 H20           -0.9197    -2.3002    -0.0006 H       
  21 H21           -2.0669    -4.7081    -0.0009 H       
  22 H22           -1.5539    -7.1948    -0.0193 H       
  23 H23            0.9190    -7.7590    -0.0467 H       
@<TRIPOS>BOND
   1    1    2 ar
   2    1    6 ar
   3    1    7 1
   4    2    3 ar
   5    3    4 ar
   6    3    8 1
   7    4    5 ar
   8    4   15 1
   9    5    6 ar
  10    5   16 1
  11    7   17 1
  12    7   18 1
  13    8    9 2
  14    8   19 1
  15    9   10 1
  16    9   20 1
  17   10   11 2
  18   10   14 1
  19   11   12 1
  20   11   21 1
  21   12   13 2
  22   12   22 1
  23   13   14 1
  24   13   23 1

#	End of record

