#	Name: ASD01884757
#	Creating user name:	WinNT
#	Creation time:	15. 06. 2019 19:48

#	Modifying user name:	WinNT
#	Modification time:	15. 06. 2019 19:48

#	Program:	/corina/corina34_cracker 3.40 0067  02.08.2006

@<TRIPOS>MOLECULE
ASD01884757
  34   36    0    0    0
SMALL
NO_CHARGES


@<TRIPOS>ATOM
   1 C1            -0.0157     1.3046     0.0092 C.2     
   2 N2             0.0021    -0.0041     0.0020 N.2     
   3 C3             1.1620    -0.6711    -0.0127 C.2     
   4 C4             2.3605     0.0076    -0.0205 C.2     
   5 N5             2.3703     1.3596    -0.0134 N.am    
   6 C6             1.1985     2.0292     0.0015 C.2     
   7 O7             1.1871     3.2488     0.0078 O.2     
   8 C8             3.6400     2.0903    -0.0211 C.3     
   9 C9             1.1570    -2.1545    -0.0201 C.ar    
  10 C10            4.0623     2.3485    -1.4445 C.ar    
  11 C11           -0.0507    -2.8499    -0.0118 C.ar    
  12 C12           -0.0493    -4.2300    -0.0187 C.ar    
  13 C13            1.1477    -4.9230    -0.0334 C.ar    
  14 C14            2.3494    -4.2379    -0.0417 C.ar    
  15 C15            2.3600    -2.8579    -0.0412 C.ar    
  16 C16            3.6587     3.5046    -2.0861 C.ar    
  17 C17            4.0457     3.7420    -3.3915 C.ar    
  18 C18            4.8371     2.8222    -4.0562 C.ar    
  19 C19            5.2407     1.6654    -3.4137 C.ar    
  20 C20            4.8578     1.4318    -2.1063 C.ar    
  21 Cl21           5.3231     3.1194    -5.6961 Cl      
  22 H22           -0.9584     1.8314     0.0165 H       
  23 H23            3.2915    -0.5396    -0.0320 H       
  24 H24            3.5157     3.0401     0.4990 H       
  25 H25            4.4035     1.4974     0.4825 H       
  26 H26           -0.9859    -2.3099     0.0004 H       
  27 H27           -0.9847    -4.7700    -0.0123 H       
  28 H28            1.1441    -6.0030    -0.0381 H       
  29 H29            3.2811    -4.7841    -0.0528 H       
  30 H30            3.2988    -2.3240    -0.0480 H       
  31 H31            3.0406     4.2224    -1.5672 H       
  32 H32            3.7301     4.6451    -3.8927 H       
  33 H33            5.8585     0.9470    -3.9320 H       
  34 H34            5.1727     0.5288    -1.6046 H       
@<TRIPOS>BOND
   1    1    2 2
   2    1    6 1
   3    1   22 1
   4    2    3 1
   5    3    4 2
   6    3    9 1
   7    4    5 1
   8    4   23 1
   9    5    6 am
  10    5    8 1
  11    6    7 2
  12    8   10 1
  13    8   24 1
  14    8   25 1
  15    9   11 ar
  16    9   15 ar
  17   10   16 ar
  18   10   20 ar
  19   11   12 ar
  20   11   26 1
  21   12   13 ar
  22   12   27 1
  23   13   14 ar
  24   13   28 1
  25   14   15 ar
  26   14   29 1
  27   15   30 1
  28   16   17 ar
  29   16   31 1
  30   17   18 ar
  31   17   32 1
  32   18   19 ar
  33   18   21 1
  34   19   20 ar
  35   19   33 1
  36   20   34 1

#	End of record

