#	Name: ASD06340100
#	Creating user name:	WinNT
#	Creation time:	15. 06. 2019 21:06

#	Modifying user name:	WinNT
#	Modification time:	15. 06. 2019 21:06

#	Program:	/corina/corina34_cracker 3.40 0067  02.08.2006

@<TRIPOS>MOLECULE
ASD06340100
  34   35    0    0    0
SMALL
NO_CHARGES


@<TRIPOS>ATOM
   1 S1            -0.0210     1.6939     0.0114 S.3     
   2 N2             0.0021    -0.0041     0.0020 N.am    
   3 C3             1.2962    -0.3594    -0.0122 C.2     
   4 N4             2.1856     0.6226    -0.0155 N.am    
   5 C5             1.6912     1.8721    -0.0040 C.2     
   6 O6             1.6365    -1.5276    -0.0214 O.2     
   7 O7             2.3224     2.9128    -0.0052 O.2     
   8 C8             3.6269     0.3610    -0.0302 C.3     
   9 C9             4.1153     0.2773    -1.4777 C.3     
  10 C10            5.6380     0.1286    -1.4944 C.3     
  11 C11            3.4772    -0.9333    -2.1621 C.3     
  12 C12           -1.1036    -0.8590     0.0084 C.ar    
  13 C13           -2.3257    -0.4205    -0.4857 C.ar    
  14 C14           -3.2923    -2.5519     0.0205 C.ar    
  15 C15           -0.9815    -2.1514     0.5036 C.ar    
  16 C16           -3.4159    -1.2680    -0.4784 C.ar    
  17 C17           -2.0758    -2.9936     0.5079 C.ar    
  18 C18           -4.4845    -3.4738     0.0274 C.3     
  19 H19            4.1482     1.1691     0.4830 H       
  20 H20            3.8302    -0.5822     0.4770 H       
  21 H21            3.8331     1.1859    -2.0095 H       
  22 H22            5.9202    -0.7800    -0.9626 H       
  23 H23            5.9860     0.0690    -2.5257 H       
  24 H24            6.0926     0.9910    -1.0069 H       
  25 H25            3.8252    -0.9929    -3.1933 H       
  26 H26            3.7595    -1.8419    -1.6303 H       
  27 H27            2.3925    -0.8274    -2.1502 H       
  28 H28           -2.4231     0.5823    -0.8749 H       
  29 H29           -0.0318    -2.4970     0.8843 H       
  30 H30           -4.3663    -0.9277    -0.8623 H       
  31 H31           -1.9828    -3.9969     0.8969 H       
  32 H32           -4.5152    -4.0349    -0.9066 H       
  33 H33           -4.4032    -4.1665     0.8650 H       
  34 H34           -5.3972    -2.8866     0.1287 H       
@<TRIPOS>BOND
   1    1    2 1
   2    1    5 1
   3    2    3 am
   4    2   12 1
   5    3    4 am
   6    3    6 2
   7    4    5 am
   8    4    8 1
   9    5    7 2
  10    8    9 1
  11    8   19 1
  12    8   20 1
  13    9   10 1
  14    9   11 1
  15    9   21 1
  16   10   22 1
  17   10   23 1
  18   10   24 1
  19   11   25 1
  20   11   26 1
  21   11   27 1
  22   12   13 ar
  23   12   15 ar
  24   13   16 ar
  25   13   28 1
  26   14   16 ar
  27   14   17 ar
  28   14   18 1
  29   15   17 ar
  30   15   29 1
  31   16   30 1
  32   17   31 1
  33   18   32 1
  34   18   33 1
  35   18   34 1

#	End of record

