#	Name: ASD01411197
#	Creating user name:	WinNT
#	Creation time:	15. 06. 2019 19:19

#	Modifying user name:	WinNT
#	Modification time:	15. 06. 2019 19:19

#	Program:	/corina/corina34_cracker 3.40 0067  02.08.2006

@<TRIPOS>MOLECULE
ASD01411197
  66   68    0    0    0
SMALL
NO_CHARGES


@<TRIPOS>ATOM
   1 C1            -1.3358     1.1114    -0.0640 C.ar    
   2 C2            -1.1100    -0.2382    -0.0523 C.ar    
   3 C3             0.1879    -0.7533    -0.0327 C.ar    
   4 C4             1.2691     0.1221    -0.0181 C.ar    
   5 C5             1.0550     1.4823    -0.0273 C.ar    
   6 C6            -0.2462     1.9921    -0.0515 C.ar    
   7 P7            -2.4832    -1.4305    -0.0560 P.3     
   8 N8            -1.8388    -2.9000     0.3177 N.2     
   9 C9            -0.5519    -3.0633     0.2922 C.2     
  10 N10            0.3812    -2.1265    -0.0349 N.pl3   
  11 C11           -0.0474    -4.4010     0.6546 C.2     
  12 C12           -0.8193    -5.4650     1.0096 C.2     
  13 C13            0.1274    -6.6094     1.2903 C.3     
  14 N14            1.4779    -6.0827     1.0594 N.am    
  15 C15            1.3628    -4.7965     0.6833 C.2     
  16 C16            2.7302    -6.8286     1.2063 C.3     
  17 C17            3.0006    -7.6276    -0.0702 C.3     
  18 C18            4.3084    -8.4066     0.0832 C.3     
  19 C19            4.1950    -9.3650     1.2704 C.3     
  20 C20            4.5788    -9.2057    -1.1933 C.3     
  21 C21            5.4594    -7.4282     0.3257 C.3     
  22 O22           -3.4893    -1.0464     0.9592 O.2     
  23 O23           -3.1630    -1.4824    -1.5145 O.3     
  24 O24           -2.1607    -5.4924     1.0939 O.3     
  25 O25            2.2962    -4.0653     0.4100 O.2     
  26 C26           -3.7580    -0.3420    -2.1369 C.3     
  27 C27           -4.3066    -0.7381    -3.5092 C.3     
  28 C28           -0.0179    -7.0694     2.7422 C.3     
  29 C29           -1.5014    -7.1338     3.1108 C.3     
  30 C30            0.6082    -8.4562     2.9028 C.3     
  31 C31            0.6944    -6.0784     3.6649 C.3     
  32 C32           -0.4646     3.4073    -0.0639 C.1     
  33 N33           -0.6379     4.5299    -0.0737 N.1     
  34 H34           -2.3453     1.4944    -0.0872 H       
  35 H35            2.2771    -0.2654     0.0009 H       
  36 H36            1.8968     2.1588    -0.0159 H       
  37 H37            1.2590    -2.4486    -0.2928 H       
  38 H38           -0.0736    -7.4381     0.6113 H       
  39 H39            3.5502    -6.1315     1.3791 H       
  40 H40            2.6494    -7.5114     2.0521 H       
  41 H41            2.1806    -8.3247    -0.2430 H       
  42 H42            3.0814    -6.9449    -0.9160 H       
  43 H43            3.3750   -10.0621     1.0976 H       
  44 H44            5.1268    -9.9200     1.3796 H       
  45 H45            4.0024    -8.7958     2.1798 H       
  46 H46            4.6596    -8.5229    -2.0391 H       
  47 H47            5.5105    -9.7607    -1.0840 H       
  48 H48            3.7588    -9.9027    -1.3661 H       
  49 H49            5.2668    -6.8589     1.2351 H       
  50 H50            6.3911    -7.9832     0.4350 H       
  51 H51            5.5402    -6.7454    -0.5201 H       
  52 H52           -2.6307    -4.6745     0.8811 H       
  53 H53           -4.5717     0.0290    -1.5137 H       
  54 H54           -3.0074     0.4392    -2.2574 H       
  55 H55           -3.4929    -1.1090    -4.1325 H       
  56 H56           -5.0572    -1.5192    -3.3888 H       
  57 H57           -4.7604     0.1318    -3.9840 H       
  58 H58           -2.0088    -7.8399     2.4535 H       
  59 H59           -1.6049    -7.4616     4.1452 H       
  60 H60           -1.9474    -6.1459     2.9964 H       
  61 H61            1.6563    -8.4183     2.6059 H       
  62 H62            0.5368    -8.7686     3.9447 H       
  63 H63            0.0775    -9.1697     2.2724 H       
  64 H64            0.2484    -5.0904     3.5505 H       
  65 H65            0.5909    -6.4061     4.6993 H       
  66 H66            1.7513    -6.0325     3.4023 H       
@<TRIPOS>BOND
   1    1    2 ar
   2    1    6 ar
   3    1   34 1
   4    2    3 ar
   5    2    7 1
   6    3    4 ar
   7    3   10 1
   8    4    5 ar
   9    4   35 1
  10    5    6 ar
  11    5   36 1
  12    6   32 1
  13    7    8 1
  14    7   22 2
  15    7   23 1
  16    8    9 2
  17    9   10 1
  18    9   11 1
  19   10   37 1
  20   11   12 2
  21   11   15 1
  22   12   13 1
  23   12   24 1
  24   13   14 1
  25   13   28 1
  26   13   38 1
  27   14   15 am
  28   14   16 1
  29   15   25 2
  30   16   17 1
  31   16   39 1
  32   16   40 1
  33   17   18 1
  34   17   41 1
  35   17   42 1
  36   18   19 1
  37   18   20 1
  38   18   21 1
  39   19   43 1
  40   19   44 1
  41   19   45 1
  42   20   46 1
  43   20   47 1
  44   20   48 1
  45   21   49 1
  46   21   50 1
  47   21   51 1
  48   23   26 1
  49   24   52 1
  50   26   27 1
  51   26   53 1
  52   26   54 1
  53   27   55 1
  54   27   56 1
  55   27   57 1
  56   28   29 1
  57   28   30 1
  58   28   31 1
  59   29   58 1
  60   29   59 1
  61   29   60 1
  62   30   61 1
  63   30   62 1
  64   30   63 1
  65   31   64 1
  66   31   65 1
  67   31   66 1
  68   32   33 3

#	End of record

