#	Name: ASD01200189
#	Creating user name:	WinNT
#	Creation time:	15. 06. 2019 19:08

#	Modifying user name:	WinNT
#	Modification time:	15. 06. 2019 19:08

#	Program:	/corina/corina34_cracker 3.40 0067  02.08.2006

@<TRIPOS>MOLECULE
ASD01200189
  27   29    0    0    0
SMALL
NO_CHARGES


@<TRIPOS>ATOM
   1 C1             0.0031     1.3277     0.1671 C.ar    
   2 C2             0.0421    -0.0545     0.1693 C.ar    
   3 C3             1.2622    -0.7041     0.1211 C.ar    
   4 C4             2.4330     0.0236     0.0713 C.ar    
   5 C5             2.4100     1.4098     0.0417 C.ar    
   6 C6             1.1712     2.0571     0.1041 C.ar    
   7 S7             3.9858    -0.8251     0.0769 S.o2    
   8 N8             5.1075     0.3883    -0.1715 N.am    
   9 C9             4.7813     1.6747     0.4792 C.3     
  10 N10            3.5446     2.2001    -0.0845 N.3     
  11 C11            3.2892     3.5671     0.3889 C.3     
  12 O12            4.1871    -1.3100     1.3974 O.2     
  13 O13            4.0090    -1.6523    -1.0783 O.2     
  14 C14            2.8474     3.7400     1.8435 C.3     
  15 C15            4.2587     4.1508     1.4186 C.3     
  16 Cl16           1.1047     3.7918     0.1023 Cl      
  17 H17           -0.9475     1.8384     0.2106 H       
  18 H18           -0.8750    -0.6236     0.2087 H       
  19 H19            1.2984    -1.7835     0.1228 H       
  20 H20            5.9096     0.2587    -0.7015 H       
  21 H21            4.6554     1.5189     1.5506 H       
  22 H22            5.5901     2.3849     0.3070 H       
  23 H23            2.8680     4.2493    -0.3496 H       
  24 H24            2.1359     4.5363     2.0621 H       
  25 H25            2.7463     2.8395     2.4492 H       
  26 H26            5.0860     3.5205     1.7448 H       
  27 H27            4.4756     5.2172     1.3576 H       
@<TRIPOS>BOND
   1    1    2 ar
   2    1    6 ar
   3    1   17 1
   4    2    3 ar
   5    2   18 1
   6    3    4 ar
   7    3   19 1
   8    4    5 ar
   9    4    7 1
  10    5    6 ar
  11    5   10 1
  12    6   16 1
  13    7    8 am
  14    7   12 2
  15    7   13 2
  16    8    9 1
  17    8   20 1
  18    9   10 1
  19    9   21 1
  20    9   22 1
  21   10   11 1
  22   11   14 1
  23   11   15 1
  24   11   23 1
  25   14   15 1
  26   14   24 1
  27   14   25 1
  28   15   26 1
  29   15   27 1

#	End of record

