#	Name: ASD01911101
#	Creating user name:	WinNT
#	Creation time:	15. 06. 2019 19:57

#	Modifying user name:	WinNT
#	Modification time:	15. 06. 2019 19:57

#	Program:	/corina/corina34_cracker 3.40 0067  02.08.2006

@<TRIPOS>MOLECULE
ASD01911101
  42   45    0    0    0
SMALL
NO_CHARGES


@<TRIPOS>ATOM
   1 C1             0.1123     0.9744     1.6651 C.2     
   2 O2             0.2608    -0.2323     1.6335 O.2     
   3 N3             1.1729     1.7885     1.4953 N.am    
   4 C4             2.5324     1.2383     1.4071 C.3     
   5 C5             3.4175     1.9430     2.4400 C.3     
   6 C6             3.3369     3.4564     2.2272 C.3     
   7 C7             1.8939     3.9252     2.4274 C.3     
   8 C8             0.9910     3.2426     1.3888 C.3     
   9 O9             5.5991     1.6202     1.1795 O.3     
  10 N10            6.6993     1.1487     1.3757 N.2     
  11 C11            6.7744     0.6715     2.5877 C.2     
  12 N12            5.5799     0.8854     3.1770 N.2     
  13 C13            4.8443     1.4870     2.2744 C.2     
  14 O14            7.8527     0.0718     3.1504 O.3     
  15 C15            8.9404    -0.1506     2.3665 C.ar    
  16 C16            8.9837     0.3595     1.0770 C.ar    
  17 C17           10.0904     0.1320     0.2822 C.ar    
  18 C18           11.1544    -0.6038     0.7707 C.ar    
  19 C19           11.1136    -1.1136     2.0554 C.ar    
  20 C20           10.0120    -0.8833     2.8565 C.ar    
  21 C21           -1.2278     1.5463     1.8828 C.2     
  22 N22           -1.5200     2.8593     2.0658 N.2     
  23 C23           -2.8056     2.9862     2.2258 C.2     
  24 N24           -3.3838     1.7593     2.1511 N.pl3   
  25 C25           -2.4020     0.8534     1.9313 C.2     
  26 H26            2.5080     0.1687     1.6158 H       
  27 H27            2.9314     1.4086     0.4071 H       
  28 H28            3.0709     1.6978     3.4439 H       
  29 H29            3.9850     3.9590     2.9451 H       
  30 H30            3.6602     3.6985     1.2148 H       
  31 H31            1.5617     3.6614     3.4315 H       
  32 H32            1.8415     5.0064     2.2988 H       
  33 H33            1.2668     3.5729     0.3874 H       
  34 H34           -0.0507     3.4959     1.5854 H       
  35 H35            8.1526     0.9336     0.6947 H       
  36 H36           10.1246     0.5288    -0.7216 H       
  37 H37           12.0186    -0.7808     0.1477 H       
  38 H38           11.9455    -1.6885     2.4344 H       
  39 H39            9.9826    -1.2776     3.8615 H       
  40 H40           -3.3281     3.9168     2.3912 H       
  41 H41           -4.3308     1.5670     2.2366 H       
  42 H42           -2.5242    -0.2140     1.8219 H       
@<TRIPOS>BOND
   1    1    2 2
   2    1    3 am
   3    1   21 1
   4    3    4 1
   5    3    8 1
   6    4    5 1
   7    4   26 1
   8    4   27 1
   9    5    6 1
  10    5   13 1
  11    5   28 1
  12    6    7 1
  13    6   29 1
  14    6   30 1
  15    7    8 1
  16    7   31 1
  17    7   32 1
  18    8   33 1
  19    8   34 1
  20    9   10 1
  21    9   13 1
  22   10   11 2
  23   11   12 1
  24   11   14 1
  25   12   13 2
  26   14   15 1
  27   15   16 ar
  28   15   20 ar
  29   16   17 ar
  30   16   35 1
  31   17   18 ar
  32   17   36 1
  33   18   19 ar
  34   18   37 1
  35   19   20 ar
  36   19   38 1
  37   20   39 1
  38   21   22 1
  39   21   25 2
  40   22   23 2
  41   23   24 1
  42   23   40 1
  43   24   25 1
  44   24   41 1
  45   25   42 1

#	End of record

