#	Name: ASD09116358
#	Creating user name:	WinNT
#	Creation time:	15. 06. 2019 21:21

#	Modifying user name:	WinNT
#	Modification time:	15. 06. 2019 21:21

#	Program:	/corina/corina34_cracker 3.40 0067  02.08.2006

@<TRIPOS>MOLECULE
ASD09116358
  80   86    0    0    0
SMALL
NO_CHARGES


@<TRIPOS>ATOM
   1 N1            -0.2136     2.2436    -0.2141 N.2     
   2 N2            -0.3343     1.0643    -0.9668 N.pl3   
   3 C3             1.0592     2.5598    -0.1994 C.2     
   4 N4             1.7434     1.6471    -0.8991 N.2     
   5 C5             0.9164     0.7377    -1.3688 C.2     
   6 N6             1.2635    -0.3577    -2.1364 N.pl3   
   7 C7            -1.5111     0.3668    -1.2453 C.ar    
   8 N8             1.6107     3.6687     0.4423 N.pl3   
   9 C9             3.0002     3.8383     0.4766 C.ar    
  10 C10            3.5436     5.1167     0.4922 C.ar    
  11 C11            3.8345     2.7289     0.5007 C.ar    
  12 C12            5.2057     2.8953     0.5350 C.ar    
  13 C13            5.7501     4.1715     0.5449 C.ar    
  14 C14            4.9151     5.2837     0.5261 C.ar    
  15 N15            7.1409     4.3399     0.5802 N.3     
  16 F16            5.4445     6.5266     0.5353 F       
  17 N17           -1.5859    -0.4032    -2.3206 N.ar    
  18 N18           -2.6484    -1.0587    -2.6274 N.ar    
  19 C19           -3.7393    -1.0006    -1.8805 C.ar    
  20 C20           -3.7460    -0.2299    -0.7144 C.ar    
  21 C21           -2.6079     0.4763    -0.3868 C.ar    
  22 C22           -4.9821    -1.7115    -2.2604 C.ar    
  23 C23           -6.1883    -1.0093    -2.2588 C.ar    
  24 C24           -6.1874     0.4579    -1.9273 C.3     
  25 C25           -6.0453     0.6893    -0.4254 C.3     
  26 C26           -4.9650    -0.2152     0.1614 C.3     
  27 C27           -4.9608    -3.0570    -2.6107 C.ar    
  28 C28           -6.1406    -3.6970    -2.9378 C.ar    
  29 C29           -7.3366    -3.0028    -2.9148 C.ar    
  30 C30           -7.3609    -1.6612    -2.5748 C.ar    
  31 C31            7.7149     3.7264     1.7846 C.3     
  32 C32            9.2077     4.0540     1.8636 C.3     
  33 C33            9.9094     3.5195     0.6120 C.3     
  34 C34            9.2609     4.1370    -0.6301 C.3     
  35 C35            7.7665     3.8071    -0.6368 C.3     
  36 N36           11.3324     3.8820     0.6544 N.3     
  37 C37           11.9642     3.3909     1.8863 C.3     
  38 C38           12.0381     3.3840    -0.5338 C.3     
  39 C39           13.4961     3.8759    -0.5257 C.3     
  40 C40           14.3861     2.6162    -0.4957 C.3     
  41 C41           13.4881     1.5025    -1.0893 C.3     
  42 C42           12.0930     1.8425    -0.5085 C.3     
  43 H43            2.1916    -0.5085    -2.3747 H       
  44 H44            0.5791    -0.9759    -2.4369 H       
  45 H45            1.0317     4.3223     0.8648 H       
  46 H46            2.8945     5.9798     0.4776 H       
  47 H47            3.4115     1.7352     0.4929 H       
  48 H48            5.8540     2.0318     0.5544 H       
  49 H49           -2.5684     1.0968     0.4963 H       
  50 H50           -5.3561     0.9393    -2.4425 H       
  51 H51           -7.1224     0.9014    -2.2696 H       
  52 H52           -5.7775     1.7307    -0.2466 H       
  53 H53           -6.9964     0.4753     0.0622 H       
  54 H54           -5.3553    -1.2291     0.2495 H       
  55 H55           -4.6907     0.1497     1.1513 H       
  56 H56           -4.0268    -3.5990    -2.6266 H       
  57 H57           -6.1289    -4.7415    -3.2123 H       
  58 H58           -8.2569    -3.5104    -3.1634 H       
  59 H59           -8.2984    -1.1253    -2.5576 H       
  60 H60            7.2099     4.1182     2.6676 H       
  61 H61            7.5821     2.6455     1.7401 H       
  62 H62            9.3407     5.1342     1.9220 H       
  63 H63            9.6367     3.5855     2.7493 H       
  64 H64            9.8098     2.4347     0.5737 H       
  65 H65            9.3947     5.2186    -0.6109 H       
  66 H66            9.7279     3.7278    -1.5260 H       
  67 H67            7.6335     2.7257    -0.6700 H       
  68 H68            7.2991     4.2574    -1.5125 H       
  69 H69           11.7825     2.3208     1.9861 H       
  70 H70           13.0377     3.5746     1.8422 H       
  71 H71           11.5411     3.9128     2.7446 H       
  72 H72           11.5338     3.7256    -1.4378 H       
  73 H73           13.6996     4.4556    -1.4261 H       
  74 H74           13.6800     4.4842     0.3599 H       
  75 H75           15.2727     2.7608    -1.1130 H       
  76 H76           14.6686     2.3731     0.5285 H       
  77 H77           13.4765     1.5548    -2.1780 H       
  78 H78           13.8178     0.5198    -0.7522 H       
  79 H79           12.0053     1.4744     0.5137 H       
  80 H80           11.3062     1.4224    -1.1351 H       
@<TRIPOS>BOND
   1    1    2 1
   2    1    3 2
   3    2    7 1
   4    2    5 1
   5    3    4 1
   6    3    8 1
   7    4    5 2
   8    5    6 1
   9    6   43 1
  10    6   44 1
  11    7   17 ar
  12    7   21 ar
  13    8    9 1
  14    8   45 1
  15    9   10 ar
  16    9   11 ar
  17   10   14 ar
  18   10   46 1
  19   11   12 ar
  20   11   47 1
  21   12   13 ar
  22   12   48 1
  23   13   14 ar
  24   13   15 1
  25   14   16 1
  26   15   31 1
  27   15   35 1
  28   17   18 ar
  29   18   19 ar
  30   19   20 ar
  31   19   22 1
  32   20   21 ar
  33   20   26 1
  34   21   49 1
  35   22   23 ar
  36   22   27 ar
  37   23   24 1
  38   23   30 ar
  39   24   25 1
  40   24   50 1
  41   24   51 1
  42   25   26 1
  43   25   52 1
  44   25   53 1
  45   26   54 1
  46   26   55 1
  47   27   28 ar
  48   27   56 1
  49   28   29 ar
  50   28   57 1
  51   29   30 ar
  52   29   58 1
  53   30   59 1
  54   31   32 1
  55   31   60 1
  56   31   61 1
  57   32   33 1
  58   32   62 1
  59   32   63 1
  60   33   34 1
  61   33   36 1
  62   33   64 1
  63   34   35 1
  64   34   65 1
  65   34   66 1
  66   35   67 1
  67   35   68 1
  68   36   37 1
  69   36   38 1
  70   37   69 1
  71   37   70 1
  72   37   71 1
  73   38   39 1
  74   38   42 1
  75   38   72 1
  76   39   40 1
  77   39   73 1
  78   39   74 1
  79   40   41 1
  80   40   75 1
  81   40   76 1
  82   41   42 1
  83   41   77 1
  84   41   78 1
  85   42   79 1
  86   42   80 1

#	End of record

