#	Name: ASD03200029
#	Creating user name:	WinNT
#	Creation time:	15. 06. 2019 20:34

#	Modifying user name:	WinNT
#	Modification time:	15. 06. 2019 20:34

#	Program:	/corina/corina34_cracker 3.40 0067  02.08.2006

@<TRIPOS>MOLECULE
ASD03200029
  63   66    0    0    0
SMALL
NO_CHARGES


@<TRIPOS>ATOM
   1 C1             0.6677    -2.4976    -0.0404 C.3     
   2 N2             0.1982    -1.1694     0.3744 N.3     
   3 C3             0.6956    -0.8243     1.7123 C.3     
   4 C4             2.2251    -0.7771     1.6929 C.3     
   5 C5             2.7676    -2.1429     1.2628 C.3     
   6 C6             2.1964    -2.5003    -0.1121 C.3     
   7 C7            -1.1928    -1.0928     0.3233 C.ar    
   8 C8            -1.9436    -0.9415     1.4865 C.ar    
   9 C9            -3.3188    -0.8697     1.3943 C.ar    
  10 N10           -3.9258    -0.9422     0.2248 N.ar    
  11 C11           -3.2549    -1.0855    -0.9028 C.ar    
  12 C12           -1.8719    -1.1601    -0.8991 C.ar    
  13 N13           -1.1641    -1.3118    -2.0991 N.am    
  14 C14           -1.6888    -2.0416    -3.1033 C.2     
  15 C15           -0.9098    -2.2787    -4.3210 C.2     
  16 O16           -2.8103    -2.5038    -2.9984 O.2     
  17 C17           -1.4254    -2.9264    -5.4217 C.2     
  18 S18           -0.1663    -2.9970    -6.6520 S.3     
  19 C19            0.9423    -2.1499    -5.5794 C.2     
  20 N20            0.3558    -1.8801    -4.4577 N.2     
  21 C21            2.3374    -1.7943    -5.9125 C.ar    
  22 N22            2.7228    -0.4525     3.0363 N.3     
  23 N23           -2.7045    -3.4322    -5.5400 N.pl3   
  24 C24            2.9025    -2.2238    -7.1152 C.ar    
  25 C25            4.2124    -1.8858    -7.4202 C.ar    
  26 C26            4.9581    -1.1240    -6.5330 C.ar    
  27 C27            4.4012    -0.6969    -5.3409 C.ar    
  28 C28            3.0954    -1.0215    -5.0277 C.ar    
  29 F29            2.1756    -2.9666    -7.9784 F       
  30 F30            2.5551    -0.6021    -3.8626 F       
  31 O31            4.7665    -2.3022    -8.5905 O.3     
  32 C32            6.1199    -1.9178    -8.8403 C.3     
  33 C33            6.5664    -2.4739   -10.1940 C.3     
  34 C34            8.0155    -2.0624   -10.4615 C.3     
  35 C35            8.4620    -2.6185   -11.8151 C.3     
  36 H36            0.3367    -3.2422     0.6836 H       
  37 H37            0.2577    -2.7377    -1.0213 H       
  38 H38            0.3058     0.1508     2.0042 H       
  39 H39            0.3645    -1.5768     2.4280 H       
  40 H40            2.5567    -0.0152     0.9874 H       
  41 H41            3.8553    -2.1012     1.2058 H       
  42 H42            2.4687    -2.8987     1.9892 H       
  43 H43            2.5452    -3.4906    -0.4048 H       
  44 H44            2.5276    -1.7656    -0.8460 H       
  45 H45           -1.4560    -0.8816     2.4483 H       
  46 H46           -3.9069    -0.7527     2.2925 H       
  47 H47           -3.7901    -1.1407    -1.8392 H       
  48 H48           -0.2965    -0.8916    -2.2069 H       
  49 H49            3.7304    -0.4952     3.0687 H       
  50 H50            2.3893     0.4511     3.3369 H       
  51 H51           -3.3305    -3.3451    -4.8041 H       
  52 H52           -2.9773    -3.8746    -6.3590 H       
  53 H53            5.9782    -0.8633    -6.7738 H       
  54 H54            4.9878    -0.1040    -4.6547 H       
  55 H55            6.1925    -0.8303    -8.8525 H       
  56 H56            6.7617    -2.3159    -8.0544 H       
  57 H57            6.4939    -3.5614   -10.1818 H       
  58 H58            5.9246    -2.0758   -10.9799 H       
  59 H59            8.0881    -0.9748   -10.4737 H       
  60 H60            8.6573    -2.4605    -9.6756 H       
  61 H61            8.3895    -3.7060   -11.8029 H       
  62 H62            7.8202    -2.2203   -12.6011 H       
  63 H63            9.4944    -2.3253   -12.0057 H       
@<TRIPOS>BOND
   1    1    2 1
   2    1    6 1
   3    1   36 1
   4    1   37 1
   5    2    3 1
   6    2    7 1
   7    3    4 1
   8    3   38 1
   9    3   39 1
  10    4    5 1
  11    4   22 1
  12    4   40 1
  13    5    6 1
  14    5   41 1
  15    5   42 1
  16    6   43 1
  17    6   44 1
  18    7    8 ar
  19    7   12 ar
  20    8    9 ar
  21    8   45 1
  22    9   10 ar
  23    9   46 1
  24   10   11 ar
  25   11   12 ar
  26   11   47 1
  27   12   13 1
  28   13   14 am
  29   13   48 1
  30   14   15 1
  31   14   16 2
  32   15   17 2
  33   15   20 1
  34   17   18 1
  35   17   23 1
  36   18   19 1
  37   19   20 2
  38   19   21 1
  39   21   24 ar
  40   21   28 ar
  41   22   49 1
  42   22   50 1
  43   23   51 1
  44   23   52 1
  45   24   25 ar
  46   24   29 1
  47   25   26 ar
  48   25   31 1
  49   26   27 ar
  50   26   53 1
  51   27   28 ar
  52   27   54 1
  53   28   30 1
  54   31   32 1
  55   32   33 1
  56   32   55 1
  57   32   56 1
  58   33   34 1
  59   33   57 1
  60   33   58 1
  61   34   35 1
  62   34   59 1
  63   34   60 1
  64   35   61 1
  65   35   62 1
  66   35   63 1

#	End of record

