#	Name: ASD03332025
#	Creating user name:	WinNT
#	Creation time:	15. 06. 2019 20:40

#	Modifying user name:	WinNT
#	Modification time:	15. 06. 2019 20:40

#	Program:	/corina/corina34_cracker 3.40 0067  02.08.2006

@<TRIPOS>MOLECULE
ASD03332025
  65   67    0    0    0
SMALL
NO_CHARGES


@<TRIPOS>ATOM
   1 C1             0.1066     1.5965     0.1965 C.2     
   2 N2             0.2154     0.2650    -0.0223 N.pl3   
   3 C3             1.4974    -0.0970     0.2727 C.2     
   4 N4             2.1499     0.9673     0.6772 N.2     
   5 C5             1.3176     2.0308     0.6447 C.2     
   6 C6             1.6584     3.4129     1.0258 C.2     
   7 O7             0.8178     4.2888     0.9524 O.2     
   8 N8             2.9016     3.7063     1.4557 N.am    
   9 C9             3.2404     5.0803     1.8346 C.3     
  10 C10            3.6442     5.8685     0.5869 C.3     
  11 C11            4.8591     5.2048    -0.0646 C.3     
  12 C12            4.3879     5.0636     2.8114 C.2     
  13 C13            2.4793     5.8855    -0.4048 C.3     
  14 C14            3.9981     7.3035     0.9826 C.3     
  15 O15            4.8728     4.0119     3.1558 O.2     
  16 O16            4.8711     6.2171     3.2989 O.3     
  17 C17            5.9769     6.1252     4.2353 C.3     
  18 C18           -0.8660    -0.6135    -0.4768 C.3     
  19 C19           -1.5799     0.0409    -1.6636 C.3     
  20 C20           -2.6903     0.9557    -1.1565 C.3     
  21 N21           -2.3177     1.5791     0.1151 N.3     
  22 C22           -1.1276     2.4293    -0.0354 C.3     
  23 C23            2.0580    -1.4613     0.1565 C.ar    
  24 C24            3.4049    -1.6405    -0.1599 C.ar    
  25 C25            3.9217    -2.9153    -0.2669 C.ar    
  26 C26            3.1071    -4.0146    -0.0616 C.ar    
  27 C27            1.7706    -3.8435     0.2520 C.ar    
  28 C28            1.2433    -2.5738     0.3684 C.ar    
  29 C29           -3.4411     2.3408     0.6772 C.3     
  30 C30           -4.0088     3.2762    -0.3922 C.3     
  31 C31           -4.5323     1.3734     1.1399 C.3     
  32 H32            3.5720     3.0077     1.5142 H       
  33 H33            2.3749     5.5531     2.2987 H       
  34 H34            4.6070     4.1825    -0.3465 H       
  35 H35            5.1467     5.7664    -0.9535 H       
  36 H36            5.6890     5.1927     0.6419 H       
  37 H37            1.6138     6.3583     0.0594 H       
  38 H38            2.7669     6.4470    -1.2936 H       
  39 H39            2.2272     4.8632    -0.6867 H       
  40 H40            4.8280     7.2914     1.6891 H       
  41 H41            4.2857     7.8650     0.0938 H       
  42 H42            3.1326     7.7763     1.4468 H       
  43 H43            6.2701     7.1265     4.5508 H       
  44 H44            5.6689     5.5456     5.1056 H       
  45 H45            6.8220     5.6343     3.7526 H       
  46 H46           -0.4507    -1.5728    -0.7854 H       
  47 H47           -1.5761    -0.7673     0.3357 H       
  48 H48           -0.8632     0.6259    -2.2400 H       
  49 H49           -2.0098    -0.7329    -2.2995 H       
  50 H50           -2.8779     1.7345    -1.8956 H       
  51 H51           -3.5993     0.3709    -1.0156 H       
  52 H52           -1.1633     3.2386     0.6939 H       
  53 H53           -1.1022     2.8457    -1.0424 H       
  54 H54            4.0417    -0.7832    -0.3211 H       
  55 H55            4.9642    -3.0554    -0.5118 H       
  56 H56            3.5162    -5.0104    -0.1468 H       
  57 H57            1.1397    -4.7056     0.4107 H       
  58 H58            0.1998    -2.4415     0.6136 H       
  59 H59           -3.0927     2.9287     1.5263 H       
  60 H60           -4.8220     3.8639     0.0337 H       
  61 H61           -3.2232     3.9446    -0.7444 H       
  62 H62           -4.3857     2.6865    -1.2278 H       
  63 H63           -4.1279     0.7070     1.9018 H       
  64 H64           -5.3659     1.9385     1.5570 H       
  65 H65           -4.8807     0.7855     0.2908 H       
@<TRIPOS>BOND
   1    1    2 1
   2    1    5 2
   3    1   22 1
   4    2    3 1
   5    2   18 1
   6    3    4 2
   7    3   23 1
   8    4    5 1
   9    5    6 1
  10    6    7 2
  11    6    8 am
  12    8    9 1
  13    8   32 1
  14    9   10 1
  15    9   12 1
  16    9   33 1
  17   10   11 1
  18   10   13 1
  19   10   14 1
  20   11   34 1
  21   11   35 1
  22   11   36 1
  23   12   15 2
  24   12   16 1
  25   13   37 1
  26   13   38 1
  27   13   39 1
  28   14   40 1
  29   14   41 1
  30   14   42 1
  31   16   17 1
  32   17   43 1
  33   17   44 1
  34   17   45 1
  35   18   19 1
  36   18   46 1
  37   18   47 1
  38   19   20 1
  39   19   48 1
  40   19   49 1
  41   20   21 1
  42   20   50 1
  43   20   51 1
  44   21   22 1
  45   21   29 1
  46   22   52 1
  47   22   53 1
  48   23   24 ar
  49   23   28 ar
  50   24   25 ar
  51   24   54 1
  52   25   26 ar
  53   25   55 1
  54   26   27 ar
  55   26   56 1
  56   27   28 ar
  57   27   57 1
  58   28   58 1
  59   29   30 1
  60   29   31 1
  61   29   59 1
  62   30   60 1
  63   30   61 1
  64   30   62 1
  65   31   63 1
  66   31   64 1
  67   31   65 1

#	End of record

