#	Name: ASD01410281
#	Creating user name:	WinNT
#	Creation time:	15. 06. 2019 19:17

#	Modifying user name:	WinNT
#	Modification time:	15. 06. 2019 19:17

#	Program:	/corina/corina34_cracker 3.40 0067  02.08.2006

@<TRIPOS>MOLECULE
ASD01410281
  66   70    0    0    0
SMALL
NO_CHARGES


@<TRIPOS>ATOM
   1 C1             0.1808     1.7049    -0.0773 C.2     
   2 C2             1.2222     0.8967     0.1776 C.2     
   3 C3             0.8262    -0.4358    -0.2973 C.2     
   4 C4            -0.4321    -0.2897    -0.7967 C.2     
   5 O5            -0.7969     0.9911    -0.6561 O.3     
   6 N6             1.1406    -2.8914    -0.3231 N.2     
   7 C7             1.6268    -1.6764    -0.2445 C.2     
   8 N8             2.9884    -1.7298    -0.1066 N.pl3   
   9 C9             3.3482    -3.0616    -0.1015 C.ar    
  10 C10            2.1527    -3.7915    -0.2411 C.ar    
  11 C11            4.5637    -3.7271     0.0069 C.ar    
  12 C12            4.6041    -5.0911    -0.0219 C.ar    
  13 C13            3.4242    -5.8339    -0.1607 C.ar    
  14 C14            2.1979    -5.1855    -0.2696 C.ar    
  15 C15            5.9288     0.5138    -0.9348 C.3     
  16 C16            6.5767     0.5093     0.4513 C.3     
  17 C17            5.4891     0.6061     1.5230 C.3     
  18 C18            4.5426    -0.5895     1.3985 C.3     
  19 C19            3.8947    -0.5850     0.0125 C.3     
  20 C20            4.9823    -0.6818    -1.0592 C.3     
  21 C21            3.4822    -7.3092    -0.1908 C.2     
  22 N22            4.6689    -7.9392    -0.0849 N.am    
  23 O23            2.4595    -7.9554    -0.3112 O.2     
  24 C24            4.7265    -9.4028    -0.1149 C.3     
  25 C25            4.7676    -9.8820    -1.5673 C.3     
  26 C26            5.9652    -9.8716     0.6040 C.2     
  27 N27            6.2285   -11.1897     0.7034 N.am    
  28 O28            6.7252    -9.0628     1.0933 O.2     
  29 C29            8.0636   -12.7574     0.8076 C.ar    
  30 C30            9.2424   -13.1839     1.3864 C.ar    
  31 C31            9.7885   -12.4790     2.4491 C.ar    
  32 C32            9.1507   -11.3453     2.9312 C.ar    
  33 C33            7.9718   -10.9176     2.3535 C.ar    
  34 C34            7.4247   -11.6227     1.2897 C.ar    
  35 O35           10.9493   -12.8999     3.0189 O.3     
  36 C36           12.0847   -12.6688     2.3346 C.2     
  37 O37           12.0349   -12.1898     1.2198 O.2     
  38 O38           13.2751   -12.9684     2.8856 O.3     
  39 H39            0.1355     2.7595     0.1512 H       
  40 H40            2.1600     1.1704     0.6380 H       
  41 H41           -1.0336    -1.0735    -1.2328 H       
  42 H42            5.4787    -3.1634     0.1138 H       
  43 H43            5.5522    -5.6014     0.0625 H       
  44 H44            1.2879    -5.7571    -0.3766 H       
  45 H45            5.3667     1.4378    -1.0700 H       
  46 H46            6.7037     0.4448    -1.6983 H       
  47 H47            7.1389    -0.4148     0.5865 H       
  48 H48            7.2511     1.3610     0.5399 H       
  49 H49            5.9507     0.6029     2.5104 H       
  50 H50            4.9270     1.5301     1.3877 H       
  51 H51            5.1047    -1.5135     1.5338 H       
  52 H52            3.7678    -0.5205     2.1621 H       
  53 H53            3.3326     0.3391    -0.1227 H       
  54 H54            4.5207    -0.6786    -2.0466 H       
  55 H55            5.5444    -1.6058    -0.9239 H       
  56 H56            5.4849    -7.4237     0.0111 H       
  57 H57            3.8440    -9.8113     0.3776 H       
  58 H58            4.8104   -10.9709    -1.5896 H       
  59 H59            3.8716    -9.5429    -2.0873 H       
  60 H60            5.6500    -9.4736    -2.0598 H       
  61 H61            5.5897   -11.8385     0.3688 H       
  62 H62            7.6409   -13.3037    -0.0226 H       
  63 H63            9.7393   -14.0666     1.0118 H       
  64 H64            9.5764   -10.7971     3.7586 H       
  65 H65            7.4751   -10.0354     2.7293 H       
  66 H66           14.0628   -12.7845     2.3557 H       
@<TRIPOS>BOND
   1    1    2 2
   2    1    5 1
   3    1   39 1
   4    2    3 1
   5    2   40 1
   6    3    4 2
   7    3    7 1
   8    4    5 1
   9    4   41 1
  10    6    7 2
  11    6   10 1
  12    7    8 1
  13    8    9 1
  14    8   19 1
  15    9   10 ar
  16    9   11 ar
  17   10   14 ar
  18   11   12 ar
  19   11   42 1
  20   12   13 ar
  21   12   43 1
  22   13   14 ar
  23   13   21 1
  24   14   44 1
  25   15   16 1
  26   15   20 1
  27   15   45 1
  28   15   46 1
  29   16   17 1
  30   16   47 1
  31   16   48 1
  32   17   18 1
  33   17   49 1
  34   17   50 1
  35   18   19 1
  36   18   51 1
  37   18   52 1
  38   19   20 1
  39   19   53 1
  40   20   54 1
  41   20   55 1
  42   21   22 am
  43   21   23 2
  44   22   24 1
  45   22   56 1
  46   24   25 1
  47   24   26 1
  48   24   57 1
  49   25   58 1
  50   25   59 1
  51   25   60 1
  52   26   27 am
  53   26   28 2
  54   27   34 1
  55   27   61 1
  56   29   30 ar
  57   29   34 ar
  58   29   62 1
  59   30   31 ar
  60   30   63 1
  61   31   32 ar
  62   31   35 1
  63   32   33 ar
  64   32   64 1
  65   33   34 ar
  66   33   65 1
  67   35   36 1
  68   36   37 2
  69   36   38 1
  70   38   66 1

#	End of record

