#	Name: ASD01813479
#	Creating user name:	WinNT
#	Creation time:	15. 06. 2019 19:30

#	Modifying user name:	WinNT
#	Modification time:	15. 06. 2019 19:30

#	Program:	/corina/corina34_cracker 3.40 0067  02.08.2006

@<TRIPOS>MOLECULE
ASD01813479
  46   49    0    0    0
SMALL
NO_CHARGES


@<TRIPOS>ATOM
   1 C1            -0.6657     0.6516     0.2442 C.ar    
   2 C2            -0.4310    -0.7145     0.1841 C.ar    
   3 C3             0.8567    -1.2060     0.1280 C.ar    
   4 C4             1.9383    -0.3257     0.1315 C.ar    
   5 C5             1.6959     1.0567     0.1925 C.ar    
   6 C6             0.3881     1.5385     0.2488 C.ar    
   7 N7             3.2305    -0.8035     0.0769 N.pl3   
   8 C8             4.3016    -0.0003     0.0791 C.2     
   9 C9             4.1899     1.3745     0.1366 C.2     
  10 C10            2.8485     1.9770     0.1955 C.2     
  11 O11            2.6965     3.1849     0.2472 O.2     
  12 C12            5.3905     2.2223     0.1380 C.2     
  13 O13            5.2685     3.5636     0.1945 O.3     
  14 O14            6.4936     1.7139     0.0883 O.2     
  15 C15            3.4404    -2.2520     0.0143 C.3     
  16 C16            3.3289    -2.7143    -1.4157 C.ar    
  17 N17            2.1409    -2.9882    -1.9187 N.ar    
  18 C18            1.9895    -3.3952    -3.1625 C.ar    
  19 C19            3.0941    -3.5517    -3.9968 C.ar    
  20 C20            4.3669    -3.2694    -3.4932 C.ar    
  21 C21            4.4736    -2.8394    -2.1819 C.ar    
  22 C22            2.9221    -4.0111    -5.3973 C.ar    
  23 F23            1.0699    -2.5389     0.0703 F       
  24 C24            3.5548    -5.1726    -5.8347 C.ar    
  25 C25            3.3910    -5.5957    -7.1384 C.ar    
  26 C26            2.6005    -4.8687    -8.0098 C.ar    
  27 C27            1.9702    -3.7143    -7.5809 C.ar    
  28 C28            2.1224    -3.2854    -6.2781 C.ar    
  29 C29            4.4170    -5.9655    -4.8865 C.3     
  30 F30            4.8146    -7.1567    -5.5030 F       
  31 F31            5.5483    -5.2158    -4.5471 F       
  32 F32            3.6883    -6.2601    -3.7291 F       
  33 H33           -1.6797     1.0215     0.2832 H       
  34 H34           -1.2653    -1.4003     0.1815 H       
  35 H35            0.2027     2.6015     0.2953 H       
  36 H36            5.2858    -0.4427     0.0348 H       
  37 H37            6.0865     4.0793     0.1930 H       
  38 H38            4.4320    -2.4923     0.3976 H       
  39 H39            2.6855    -2.7550     0.6187 H       
  40 H40            1.0001    -3.6098    -3.5387 H       
  41 H41            5.2445    -3.3801    -4.1128 H       
  42 H42            5.4410    -2.6120    -1.7590 H       
  43 H43            3.8813    -6.4958    -7.4787 H       
  44 H44            2.4750    -5.2033    -9.0290 H       
  45 H45            1.3542    -3.1503    -8.2656 H       
  46 H46            1.6299    -2.3841    -5.9443 H       
@<TRIPOS>BOND
   1    1    2 ar
   2    1    6 ar
   3    1   33 1
   4    2    3 ar
   5    2   34 1
   6    3    4 ar
   7    3   23 1
   8    4    5 ar
   9    4    7 1
  10    5    6 ar
  11    5   10 1
  12    6   35 1
  13    7    8 1
  14    7   15 1
  15    8    9 2
  16    8   36 1
  17    9   10 1
  18    9   12 1
  19   10   11 2
  20   12   13 1
  21   12   14 2
  22   13   37 1
  23   15   16 1
  24   15   38 1
  25   15   39 1
  26   16   17 ar
  27   16   21 ar
  28   17   18 ar
  29   18   19 ar
  30   18   40 1
  31   19   20 ar
  32   19   22 1
  33   20   21 ar
  34   20   41 1
  35   21   42 1
  36   22   24 ar
  37   22   28 ar
  38   24   25 ar
  39   24   29 1
  40   25   26 ar
  41   25   43 1
  42   26   27 ar
  43   26   44 1
  44   27   28 ar
  45   27   45 1
  46   28   46 1
  47   29   30 1
  48   29   31 1
  49   29   32 1

#	End of record

