#	Name: ASD01881616
#	Creating user name:	WinNT
#	Creation time:	15. 06. 2019 19:43

#	Modifying user name:	WinNT
#	Modification time:	15. 06. 2019 19:43

#	Program:	/corina/corina34_cracker 3.40 0067  02.08.2006

@<TRIPOS>MOLECULE
ASD01881616
  40   42    0    0    0
SMALL
NO_CHARGES


@<TRIPOS>ATOM
   1 C1             0.0021    -0.0041     0.0020 C.1     
   2 C2            -0.0173     1.4278     0.0099 C.ar    
   3 C3             1.1831     2.1437     0.0023 C.ar    
   4 C4             1.1630     3.5199     0.0099 C.ar    
   5 C5            -0.0549     4.2004     0.0257 C.ar    
   6 C6            -1.2540     3.4870     0.0338 C.ar    
   7 C7            -1.2368     2.1108     0.0194 C.ar    
   8 N8             0.0175    -1.1399    -0.0042 N.1     
   9 N9            -0.3094     9.7934    -0.1506 N.pl3   
  10 N10           -1.2198     9.8772    -1.2140 N.2     
  11 N11           -1.5326     8.6925    -1.6058 N.2     
  12 C12           -0.8805     7.7676    -0.8629 C.ar    
  13 C13           -0.0910     8.4555     0.0760 C.ar    
  14 C14           -0.8669     6.3679    -0.8759 C.ar    
  15 C15           -0.0750     5.6826     0.0344 C.ar    
  16 C16            0.7046     6.3846     0.9613 C.ar    
  17 C17            0.6956     7.7484     0.9811 C.ar    
  18 C18            0.2957    10.9139     0.5737 C.3     
  19 C19           -0.5896    11.2898     1.7636 C.3     
  20 C20           -0.7211    10.0879     2.7012 C.3     
  21 C21            0.0424    12.4600     2.5200 C.3     
  22 C22           -1.9755    11.6973     1.2594 C.3     
  23 Br23          -1.9192     5.4174    -2.1270 Br      
  24 H24            2.1261     1.6172    -0.0092 H       
  25 H25            2.0905     4.0733     0.0040 H       
  26 H26           -2.1961     4.0149     0.0467 H       
  27 H27           -2.1652     1.5588     0.0204 H       
  28 H28            1.3175     5.8423     1.6661 H       
  29 H29            1.3003     8.2809     1.7003 H       
  30 H30            1.2831    10.6236     0.9328 H       
  31 H31            0.3894    11.7702    -0.0943 H       
  32 H32            0.2663     9.7975     3.0603 H       
  33 H33           -1.3518    10.3556     3.5489 H       
  34 H34           -1.1713     9.2542     2.1623 H       
  35 H35            0.1360    13.3162     1.8520 H       
  36 H36           -0.5884    12.7277     3.3676 H       
  37 H37            1.0297    12.1696     2.8791 H       
  38 H38           -2.4257    10.8636     0.7206 H       
  39 H39           -2.6062    11.9650     2.1071 H       
  40 H40           -1.8819    12.5535     0.5915 H       
@<TRIPOS>BOND
   1    1    2 1
   2    1    8 3
   3    2    3 ar
   4    2    7 ar
   5    3    4 ar
   6    3   24 1
   7    4    5 ar
   8    4   25 1
   9    5    6 ar
  10    5   15 1
  11    6    7 ar
  12    6   26 1
  13    7   27 1
  14    9   10 1
  15    9   13 1
  16    9   18 1
  17   10   11 2
  18   11   12 1
  19   12   13 ar
  20   12   14 ar
  21   13   17 ar
  22   14   15 ar
  23   14   23 1
  24   15   16 ar
  25   16   17 ar
  26   16   28 1
  27   17   29 1
  28   18   19 1
  29   18   30 1
  30   18   31 1
  31   19   20 1
  32   19   21 1
  33   19   22 1
  34   20   32 1
  35   20   33 1
  36   20   34 1
  37   21   35 1
  38   21   36 1
  39   21   37 1
  40   22   38 1
  41   22   39 1
  42   22   40 1

#	End of record

