#	Name: ASD03430289
#	Creating user name:	WinNT
#	Creation time:	15. 06. 2019 20:40

#	Modifying user name:	WinNT
#	Modification time:	15. 06. 2019 20:40

#	Program:	/corina/corina34_cracker 3.40 0067  02.08.2006

@<TRIPOS>MOLECULE
ASD03430289
  50   53    0    0    0
SMALL
NO_CHARGES


@<TRIPOS>ATOM
   1 C1             0.0704     1.5852     0.0961 C.ar    
   2 C2             0.3041     0.2151    -0.0853 C.ar    
   3 C3             1.5713    -0.2783    -0.0177 C.ar    
   4 C4             2.6572     0.5623     0.2434 C.ar    
   5 C5             2.4365     1.9263     0.4190 C.ar    
   6 C6             1.1572     2.4427     0.3465 C.ar    
   7 O7             3.8212    -0.1413     0.2975 O.3     
   8 C8             2.1363    -1.6636    -0.1893 C.3     
   9 C9             3.6409    -1.4118    -0.3565 C.3     
  10 C10            1.1581    -3.6465     0.4668 C.ar    
  11 C11            1.8434    -2.5503     0.9843 C.ar    
  12 C12            1.5533    -2.3714    -1.3786 C.2     
  13 N13            1.0047    -3.5121    -0.9152 N.am    
  14 O14            1.5721    -1.9911    -2.5301 O.2     
  15 C15            2.1117    -2.4644     2.3323 C.ar    
  16 C16            1.7006    -3.4722     3.1863 C.ar    
  17 C17            1.0195    -4.5659     2.6832 C.ar    
  18 C18            0.7484    -4.6565     1.3338 C.ar    
  19 C19            0.3271    -4.4967    -1.7623 C.3     
  20 O20            0.9497     3.7720     0.5157 O.3     
  21 C21           -1.1615    -4.1545    -1.8515 C.3     
  22 C22           -1.8691    -5.1828    -2.7362 C.3     
  23 C23           -1.8093    -6.5578    -2.0679 C.3     
  24 C24           -3.3304    -4.7716    -2.9272 C.3     
  25 C25           -1.2913     2.1198     0.0197 C.2     
  26 O26           -2.0640     1.9454     0.9389 O.2     
  27 C27           -1.7325     2.8863    -1.2004 C.3     
  28 F28           -1.9986     4.2134    -0.8465 F       
  29 F29           -0.7178     2.8550    -2.1630 F       
  30 F30           -2.8907     2.3023    -1.7246 F       
  31 H31           -0.5236    -0.4512    -0.2789 H       
  32 H32            3.2705     2.5842     0.6138 H       
  33 H33            3.9070    -1.3450    -1.4114 H       
  34 H34            4.2208    -2.1889     0.1414 H       
  35 H35            2.6439    -1.6098     2.7230 H       
  36 H36            1.9114    -3.4053     4.2434 H       
  37 H37            0.6987    -5.3526     3.3499 H       
  38 H38            0.2163    -5.5136     0.9483 H       
  39 H39            0.7644    -4.4793    -2.7606 H       
  40 H40            0.4462    -5.4906    -1.3308 H       
  41 H41            0.7890     4.0314     1.4333 H       
  42 H42           -1.5987    -4.1719    -0.8532 H       
  43 H43           -1.2805    -3.1606    -2.2830 H       
  44 H44           -1.3748    -5.2286    -3.7066 H       
  45 H45           -2.3036    -6.5119    -1.0975 H       
  46 H46           -2.3134    -7.2903    -2.6982 H       
  47 H47           -0.7682    -6.8506    -1.9319 H       
  48 H48           -3.3730    -3.7921    -3.4033 H       
  49 H49           -3.8346    -5.5042    -3.5575 H       
  50 H50           -3.8247    -4.7258    -1.9568 H       
@<TRIPOS>BOND
   1    1    2 ar
   2    1    6 ar
   3    1   25 1
   4    2    3 ar
   5    2   31 1
   6    3    4 ar
   7    3    8 1
   8    4    5 ar
   9    4    7 1
  10    5    6 ar
  11    5   32 1
  12    6   20 1
  13    7    9 1
  14    8    9 1
  15    8   11 1
  16    8   12 1
  17    9   33 1
  18    9   34 1
  19   10   11 ar
  20   10   13 1
  21   10   18 ar
  22   11   15 ar
  23   12   13 am
  24   12   14 2
  25   13   19 1
  26   15   16 ar
  27   15   35 1
  28   16   17 ar
  29   16   36 1
  30   17   18 ar
  31   17   37 1
  32   18   38 1
  33   19   21 1
  34   19   39 1
  35   19   40 1
  36   20   41 1
  37   21   22 1
  38   21   42 1
  39   21   43 1
  40   22   23 1
  41   22   24 1
  42   22   44 1
  43   23   45 1
  44   23   46 1
  45   23   47 1
  46   24   48 1
  47   24   49 1
  48   24   50 1
  49   25   26 2
  50   25   27 1
  51   27   28 1
  52   27   29 1
  53   27   30 1

#	End of record

