#	Name: ASD01670052
#	Creating user name:	WinNT
#	Creation time:	15. 06. 2019 19:22

#	Modifying user name:	WinNT
#	Modification time:	15. 06. 2019 19:22

#	Program:	/corina/corina34_cracker 3.40 0067  02.08.2006

@<TRIPOS>MOLECULE
ASD01670052
  74   77    0    0    0
SMALL
NO_CHARGES


@<TRIPOS>ATOM
   1 C1             0.0965     1.2938    -0.4174 C.ar    
   2 C2             0.6518     1.1477     0.8412 C.ar    
   3 C3             0.7416     0.7797    -1.5234 C.ar    
   4 C4             1.8569     0.4861     0.9999 C.ar    
   5 C5             6.6487    -0.9616     3.7863 C.ar    
   6 C6             6.8896    -0.9665     5.1497 C.ar    
   7 C7             1.9570     0.1110    -1.3703 C.ar    
   8 C8             4.6935    -2.3172     4.1238 C.ar    
   9 C9             2.5121    -0.0326    -0.0975 C.ar    
  10 C10            5.5608    -1.6304     3.2694 C.ar    
  11 C11            6.0402    -1.6446     6.0103 C.ar    
  12 C12            4.9372    -2.3213     5.5043 C.ar    
  13 C13            0.4971    -1.8948    -8.5004 C.3     
  14 C14           -0.2726    -1.4360    -7.2602 C.3     
  15 C15            2.6535    -0.4429    -2.5509 C.2     
  16 C16            3.5276    -3.0337     3.5757 C.2     
  17 C17            6.8444    -1.2898    11.6066 C.2     
  18 C18            1.7667    -1.0547    -8.6523 C.3     
  19 C19            2.6459    -1.2304    -7.4125 C.3     
  20 C20            0.6066    -1.6118    -6.0204 C.3     
  21 C21            4.5696    -3.2823     7.6454 C.3     
  22 C22            1.8762    -0.7717    -6.1723 C.3     
  23 C23            5.2263    -2.0175     8.2134 C.3     
  24 C24            3.8246    -0.7523     0.0771 C.3     
  25 C25            5.3057    -1.6211     1.7842 C.3     
  26 C26            4.7436     0.7339     1.7533 C.3     
  27 C27            6.3103    -1.0087    10.2258 C.3     
  28 C28            2.7554    -0.9474    -4.9325 C.3     
  29 C29            5.7686    -2.3029     9.6153 C.3     
  30 N30            2.0652    -0.3986    -3.7626 N.am    
  31 N31            4.2696    -0.6277     1.4715 N.3     
  32 O32            3.6310    -4.1980     3.2438 O.2     
  33 O33            6.7967    -2.4102    12.0564 O.2     
  34 O34            3.7568    -0.9382    -2.4287 O.2     
  35 O35            2.3473    -2.3974     3.4427 O.3     
  36 O36            7.3731    -0.2954    12.3370 O.3     
  37 O37            4.0880    -2.9856     6.3301 O.3     
  38 O38            6.3020    -1.6421     7.3463 O.3     
  39 H39           -0.8463     1.8076    -0.5339 H       
  40 H40            0.1428     1.5520     1.7037 H       
  41 H41            0.3069     0.8941    -2.5054 H       
  42 H42            2.2854     0.3760     1.9851 H       
  43 H43            7.3146    -0.4270     3.1250 H       
  44 H44            7.7449    -0.4389     5.5454 H       
  45 H45            0.7672    -2.9452    -8.3924 H       
  46 H46           -0.1293    -1.7696    -9.3836 H       
  47 H47           -0.5427    -0.3856    -7.3681 H       
  48 H48           -1.1772    -2.0345    -7.1520 H       
  49 H49            2.3151    -1.3815    -9.5358 H       
  50 H50            1.4966    -0.0042    -8.7602 H       
  51 H51            2.9160    -2.2809    -7.3046 H       
  52 H52            3.5505    -0.6319    -7.5207 H       
  53 H53            0.0582    -1.2850    -5.1369 H       
  54 H54            0.8767    -2.6622    -5.9125 H       
  55 H55            5.3035    -4.0865     7.5946 H       
  56 H56            3.7379    -3.5826     8.2828 H       
  57 H57            1.6061     0.2788    -6.2803 H       
  58 H58            4.4935    -1.2120     8.2597 H       
  59 H59            3.6969    -1.8060    -0.1708 H       
  60 H60            4.5713    -0.3115    -0.5833 H       
  61 H61            6.2257    -1.3641     1.2591 H       
  62 H62            4.9700    -2.6084     1.4670 H       
  63 H63            3.9142     1.4345     1.6570 H       
  64 H64            5.1404     0.7778     2.7675 H       
  65 H65            5.5278     0.9995     1.0444 H       
  66 H66            5.5082    -0.2734    10.2891 H       
  67 H67            7.1119    -0.6189     9.5985 H       
  68 H68            2.9522    -2.0077    -4.7740 H       
  69 H69            3.6985    -0.4207    -5.0782 H       
  70 H70            4.9669    -2.6927    10.2425 H       
  71 H71            6.5707    -3.0382     9.5519 H       
  72 H72            1.1848    -0.0032    -3.8602 H       
  73 H73            1.6116    -2.9085     3.0786 H       
  74 H74            7.7027    -0.5242    13.2168 H       
@<TRIPOS>BOND
   1    1    2 ar
   2    1    3 ar
   3    1   39 1
   4    2    4 ar
   5    2   40 1
   6    3    7 ar
   7    3   41 1
   8    4    9 ar
   9    4   42 1
  10    5    6 ar
  11    5   10 ar
  12    5   43 1
  13    6   11 ar
  14    6   44 1
  15    7    9 ar
  16    7   15 1
  17    8   10 ar
  18    8   12 ar
  19    8   16 1
  20    9   24 1
  21   10   25 1
  22   11   12 ar
  23   11   38 1
  24   12   37 1
  25   13   14 1
  26   13   18 1
  27   13   45 1
  28   13   46 1
  29   14   20 1
  30   14   47 1
  31   14   48 1
  32   15   30 am
  33   15   34 2
  34   16   32 2
  35   16   35 1
  36   17   27 1
  37   17   33 2
  38   17   36 1
  39   18   19 1
  40   18   49 1
  41   18   50 1
  42   19   22 1
  43   19   51 1
  44   19   52 1
  45   20   22 1
  46   20   53 1
  47   20   54 1
  48   21   23 1
  49   21   37 1
  50   21   55 1
  51   21   56 1
  52   22   28 1
  53   22   57 1
  54   23   29 1
  55   23   38 1
  56   23   58 1
  57   24   31 1
  58   24   59 1
  59   24   60 1
  60   25   31 1
  61   25   61 1
  62   25   62 1
  63   26   31 1
  64   26   63 1
  65   26   64 1
  66   26   65 1
  67   27   29 1
  68   27   66 1
  69   27   67 1
  70   28   30 1
  71   28   68 1
  72   28   69 1
  73   29   70 1
  74   29   71 1
  75   30   72 1
  76   35   73 1
  77   36   74 1

#	End of record

