#	Name: ASD01840052
#	Creating user name:	WinNT
#	Creation time:	15. 06. 2019 19:37

#	Modifying user name:	WinNT
#	Modification time:	15. 06. 2019 19:37

#	Program:	/corina/corina34_cracker 3.40 0067  02.08.2006

@<TRIPOS>MOLECULE
ASD01840052
  56   59    0    0    0
SMALL
NO_CHARGES


@<TRIPOS>ATOM
   1 C1            -0.0121     1.3266     0.0416 C.ar    
   2 N2             0.2897     0.4798     1.0147 N.ar    
   3 C3             1.4298    -0.1871     1.0120 C.ar    
   4 N4             2.3182    -0.0496     0.0552 N.ar    
   5 C5             0.9130     1.5129    -1.0174 C.ar    
   6 C6             0.8413     2.3624    -2.1913 C.2     
   7 C7             2.1038     0.7828    -0.9715 C.ar    
   8 S8             3.0880     1.1707    -2.3749 S.3     
   9 C9             1.8902     2.2951    -2.9880 C.2     
  10 C10           -0.3404     3.2524    -2.4785 C.3     
  11 C11            2.0402     3.0841    -4.2632 C.3     
  12 N12           -1.2125     2.0137     0.0552 N.3     
  13 C13           -2.3489     1.0898    -0.0512 C.3     
  14 C14           -3.6476     1.8892    -0.1796 C.3     
  15 C15           -3.8107     2.7892     1.0484 C.3     
  16 C16           -2.5913     3.7081     1.1635 C.3     
  17 C17           -1.3232     2.8560     1.2530 C.3     
  18 C18           -5.0573     3.6229     0.8997 C.2     
  19 O19           -5.7482     3.5094    -0.0905 O.2     
  20 N20           -5.4043     4.4947     1.8672 N.am    
  21 C21           -6.6161     5.3052     1.7227 C.3     
  22 C22           -6.7755     6.1905     2.9318 C.ar    
  23 C23           -7.6271     6.5505     5.1403 C.ar    
  24 C24           -7.4809     5.7384     4.0312 C.ar    
  25 C25           -6.2114     7.4525     2.9436 C.ar    
  26 C26           -6.3576     8.2646     4.0526 C.ar    
  27 C27           -7.0683     7.8149     5.1497 C.ar    
  28 S28           -7.2547     8.8500     6.5634 S.o     
  29 O29           -5.9861     8.7571     7.1970 O.2     
  30 O30           -7.2378    10.2502     5.9671 O.3     
  31 N31           -7.3797    11.3196     6.9553 N.3     
  32 H32            1.6383    -0.8679     1.8241 H       
  33 H33           -0.2240     4.1948    -1.9433 H       
  34 H34           -0.3968     3.4472    -3.5494 H       
  35 H35           -1.2552     2.7588    -2.1503 H       
  36 H36            2.5235     4.0367    -4.0463 H       
  37 H37            2.6491     2.5203    -4.9698 H       
  38 H38            1.0564     3.2660    -4.6957 H       
  39 H39           -2.2226     0.4585    -0.9307 H       
  40 H40           -2.3937     0.4650     0.8408 H       
  41 H41           -3.6092     2.5039    -1.0788 H       
  42 H42           -4.4924     1.2033    -0.2428 H       
  43 H43           -3.8883     2.1729     1.9441 H       
  44 H44           -2.5362     4.3515     0.2854 H       
  45 H45           -2.6814     4.3217     2.0599 H       
  46 H46           -1.3728     2.2229     2.1388 H       
  47 H47           -0.4520     3.5075     1.3207 H       
  48 H48           -4.8517     4.5855     2.6592 H       
  49 H49           -6.5356     5.9228     0.8282 H       
  50 H50           -7.4829     4.6502     1.6352 H       
  51 H51           -8.1786     6.1975     5.9992 H       
  52 H52           -7.9182     4.7509     4.0236 H       
  53 H53           -5.6561     7.8038     2.0865 H       
  54 H54           -5.9163     9.2502     4.0621 H       
  55 H55           -6.6674    11.2514     7.6667 H       
  56 H56           -7.3627    12.2259     6.5123 H       
@<TRIPOS>BOND
   1    1    2 ar
   2    1    5 ar
   3    1   12 1
   4    2    3 ar
   5    3    4 ar
   6    3   32 1
   7    4    7 ar
   8    5    7 ar
   9    5    6 1
  10    6    9 2
  11    6   10 1
  12    7    8 1
  13    8    9 1
  14    9   11 1
  15   10   33 1
  16   10   34 1
  17   10   35 1
  18   11   36 1
  19   11   37 1
  20   11   38 1
  21   12   13 1
  22   12   17 1
  23   13   14 1
  24   13   39 1
  25   13   40 1
  26   14   15 1
  27   14   41 1
  28   14   42 1
  29   15   16 1
  30   15   18 1
  31   15   43 1
  32   16   17 1
  33   16   44 1
  34   16   45 1
  35   17   46 1
  36   17   47 1
  37   18   19 2
  38   18   20 am
  39   20   21 1
  40   20   48 1
  41   21   22 1
  42   21   49 1
  43   21   50 1
  44   22   25 ar
  45   22   24 ar
  46   23   24 ar
  47   23   27 ar
  48   23   51 1
  49   24   52 1
  50   25   26 ar
  51   25   53 1
  52   26   27 ar
  53   26   54 1
  54   27   28 1
  55   28   29 2
  56   28   30 1
  57   30   31 1
  58   31   55 1
  59   31   56 1

#	End of record

