#	Name: ASD01910503
#	Creating user name:	WinNT
#	Creation time:	15. 06. 2019 19:56

#	Modifying user name:	WinNT
#	Modification time:	15. 06. 2019 19:56

#	Program:	/corina/corina34_cracker 3.40 0067  02.08.2006

@<TRIPOS>MOLECULE
ASD01910503
  42   45    0    0    0
SMALL
NO_CHARGES


@<TRIPOS>ATOM
   1 N1            -0.0247     3.0141     0.7535 N.2     
   2 C2            -0.3247     1.7468     0.6091 C.2     
   3 N3             0.8375     1.0835     0.4034 N.2     
   4 C4             1.7745     1.9973     0.4365 C.2     
   5 O5             1.1740     3.1712     0.6569 O.3     
   6 C6            -1.6769     1.1531     0.6617 C.2     
   7 C7            -2.8424     1.8286     0.8697 C.2     
   8 C8            -3.8817     0.8863     0.8426 C.2     
   9 C9            -3.3302    -0.3275     0.6211 C.2     
  10 N10           -1.9829    -0.1752     0.5038 N.pl3   
  11 C11            3.9962     2.2289     1.5179 C.3     
  12 C12            3.2535     1.7686     0.2596 C.3     
  13 C13            3.7539     2.5693    -0.9448 C.3     
  14 C14            5.2491     2.3120    -1.1451 C.3     
  15 C15            6.0144     2.7785     0.0973 C.3     
  16 N16            5.4420     2.1208     1.2799 N.am    
  17 C17            6.2282     1.4311     2.1300 C.2     
  18 C18            5.6619     0.8799     3.3763 C.ar    
  19 O19            7.4040     1.2631     1.8701 O.2     
  20 C20            4.8793     1.6851     4.2074 C.ar    
  21 C21            4.3526     1.1653     5.3696 C.ar    
  22 C22            4.5973    -0.1552     5.7169 C.ar    
  23 C23            5.3724    -0.9607     4.8986 C.ar    
  24 C24            5.9019    -0.4532     3.7278 C.ar    
  25 F25            4.0780    -0.6578     6.8583 F       
  26 F26            6.6574    -1.2388     2.9295 F       
  27 H27           -2.9465     2.8920     1.0266 H       
  28 H28           -4.9332     1.0937     0.9753 H       
  29 H29           -3.8684    -1.2608     0.5464 H       
  30 H30           -1.3448    -0.8875     0.3416 H       
  31 H31            3.7382     3.2653     1.7359 H       
  32 H32            3.7161     1.5957     2.3598 H       
  33 H33            3.4408     0.7076     0.0943 H       
  34 H34            3.2096     2.2609    -1.8374 H       
  35 H35            3.5888     3.6322    -0.7682 H       
  36 H36            5.4176     1.2459    -1.2971 H       
  37 H37            5.5997     2.8642    -2.0170 H       
  38 H38            7.0659     2.5079     0.0018 H       
  39 H39            5.9210     3.8597     0.1994 H       
  40 H40            4.6875     2.7136     3.9394 H       
  41 H41            3.7478     1.7878     6.0123 H       
  42 H42            5.5599    -1.9880     5.1743 H       
@<TRIPOS>BOND
   1    1    2 2
   2    1    5 1
   3    2    3 1
   4    2    6 1
   5    3    4 2
   6    4    5 1
   7    4   12 1
   8    6    7 2
   9    6   10 1
  10    7    8 1
  11    7   27 1
  12    8    9 2
  13    8   28 1
  14    9   10 1
  15    9   29 1
  16   10   30 1
  17   11   12 1
  18   11   16 1
  19   11   31 1
  20   11   32 1
  21   12   13 1
  22   12   33 1
  23   13   14 1
  24   13   34 1
  25   13   35 1
  26   14   15 1
  27   14   36 1
  28   14   37 1
  29   15   16 1
  30   15   38 1
  31   15   39 1
  32   16   17 am
  33   17   18 1
  34   17   19 2
  35   18   20 ar
  36   18   24 ar
  37   20   21 ar
  38   20   40 1
  39   21   22 ar
  40   21   41 1
  41   22   23 ar
  42   22   25 1
  43   23   24 ar
  44   23   42 1
  45   24   26 1

#	End of record

