#	Name: ASD02500169
#	Creating user name:	WinNT
#	Creation time:	15. 06. 2019 20:22

#	Modifying user name:	WinNT
#	Modification time:	15. 06. 2019 20:22

#	Program:	/corina/corina34_cracker 3.40 0067  02.08.2006

@<TRIPOS>MOLECULE
ASD02500169
  61   65    0    0    0
SMALL
NO_CHARGES


@<TRIPOS>ATOM
   1 N1             1.2977     2.2611     3.0751 N.am    
   2 C2             0.7597     1.0923     2.3649 C.3     
   3 C3             0.9703     1.2941     0.8592 C.3     
   4 N4             2.3691     1.6810     0.6284 N.am    
   5 C5             2.9071     2.8498     1.3386 C.3     
   6 C6             2.6965     2.6481     2.8443 C.3     
   7 C7             0.5205     2.9688     3.9187 C.2     
   8 O8            -0.6362     2.6422     4.0977 O.2     
   9 O9             1.0258     4.0379     4.5633 O.3     
  10 C10            3.1449     0.9764    -0.2191 C.2     
  11 C11            4.5063     1.4471    -0.5373 C.ar    
  12 C12            5.5272     0.5240    -0.7821 C.ar    
  13 C13            6.7961     0.9662    -1.0787 C.ar    
  14 C14            7.0636     2.3313    -1.1351 C.ar    
  15 C15            6.0492     3.2530    -0.8914 C.ar    
  16 C16            4.7768     2.8171    -0.6004 C.ar    
  17 O17            2.7226    -0.0474    -0.7213 O.2     
  18 S18            8.5649     4.0024    -2.5251 S.o2    
  19 O19            7.7060     5.0584    -2.1173 O.2     
  20 O20            9.9690     4.1579    -2.6787 O.2     
  21 N21            8.3469     2.7749    -1.4351 N.am    
  22 N22            9.6630     1.7730    -4.2127 N.ar    
  23 C23           10.2603     0.7807    -4.8265 C.ar    
  24 C24            9.8112     0.3021    -6.0556 C.ar    
  25 C25            8.7209     0.8696    -6.6509 C.ar    
  26 C26            8.0817     1.9348    -5.9886 C.ar    
  27 C27            6.9561     2.5680    -6.5390 C.ar    
  28 C28            6.3662     3.5952    -5.8674 C.ar    
  29 C29            6.8644     4.0263    -4.6399 C.ar    
  30 C30            7.9543     3.4358    -4.0777 C.ar    
  31 C31            8.5911     2.3725    -4.7407 C.ar    
  32 C32            0.1639     4.7651     5.3223 C.ar    
  33 C33           -0.3747     4.2191     6.4782 C.ar    
  34 C34           -1.2500     4.9603     7.2481 C.ar    
  35 C35           -1.5898     6.2453     6.8671 C.ar    
  36 C36           -1.0548     6.7916     5.7152 C.ar    
  37 C37           -0.1742     6.0566     4.9452 C.ar    
  38 H38            1.2834     0.1935     2.6904 H       
  39 H39           -0.3053     0.9946     2.5755 H       
  40 H40            0.7561     0.3643     0.3321 H       
  41 H41            0.3086     2.0821     0.4996 H       
  42 H42            3.9721     2.9475     1.1280 H       
  43 H43            2.3834     3.7486     1.0131 H       
  44 H44            2.9107     3.5778     3.3714 H       
  45 H45            3.3582     1.8600     3.2039 H       
  46 H46            5.3203    -0.5351    -0.7381 H       
  47 H47            7.5853     0.2536    -1.2675 H       
  48 H48            6.2600     4.3114    -0.9352 H       
  49 H49            3.9891     3.5327    -0.4165 H       
  50 H50            9.1143     2.3655    -1.0058 H       
  51 H51           11.1237     0.3222    -4.3676 H       
  52 H52           10.3250    -0.5167    -6.5372 H       
  53 H53            8.3594     0.5115    -7.6035 H       
  54 H54            6.5605     2.2424    -7.4898 H       
  55 H55            5.5003     4.0817    -6.2916 H       
  56 H56            6.3793     4.8436    -4.1270 H       
  57 H57           -0.1101     3.2152     6.7759 H       
  58 H58           -1.6696     4.5357     8.1481 H       
  59 H59           -2.2746     6.8231     7.4701 H       
  60 H60           -1.3223     7.7952     5.4193 H       
  61 H61            0.2472     6.4855     4.0481 H       
@<TRIPOS>BOND
   1    1    2 1
   2    1    6 1
   3    1    7 am
   4    2    3 1
   5    2   38 1
   6    2   39 1
   7    3    4 1
   8    3   40 1
   9    3   41 1
  10    4    5 1
  11    4   10 am
  12    5    6 1
  13    5   42 1
  14    5   43 1
  15    6   44 1
  16    6   45 1
  17    7    8 2
  18    7    9 1
  19    9   32 1
  20   10   11 1
  21   10   17 2
  22   11   12 ar
  23   11   16 ar
  24   12   13 ar
  25   12   46 1
  26   13   14 ar
  27   13   47 1
  28   14   15 ar
  29   14   21 1
  30   15   16 ar
  31   15   48 1
  32   16   49 1
  33   18   19 2
  34   18   20 2
  35   18   21 am
  36   18   30 1
  37   21   50 1
  38   22   23 ar
  39   22   31 ar
  40   23   24 ar
  41   23   51 1
  42   24   25 ar
  43   24   52 1
  44   25   26 ar
  45   25   53 1
  46   26   27 ar
  47   26   31 ar
  48   27   28 ar
  49   27   54 1
  50   28   29 ar
  51   28   55 1
  52   29   30 ar
  53   29   56 1
  54   30   31 ar
  55   32   33 ar
  56   32   37 ar
  57   33   34 ar
  58   33   57 1
  59   34   35 ar
  60   34   58 1
  61   35   36 ar
  62   35   59 1
  63   36   37 ar
  64   36   60 1
  65   37   61 1

#	End of record

