#	Name: ASD09116511
#	Creating user name:	WinNT
#	Creation time:	15. 06. 2019 21:21

#	Modifying user name:	WinNT
#	Modification time:	15. 06. 2019 21:21

#	Program:	/corina/corina34_cracker 3.40 0067  02.08.2006

@<TRIPOS>MOLECULE
ASD09116511
  62   67    0    0    0
SMALL
NO_CHARGES


@<TRIPOS>ATOM
   1 N1             0.1404     1.1373     0.2310 N.2     
   2 N2             0.2188    -0.2616     0.3259 N.pl3   
   3 C3             1.3706     1.5869     0.1691 C.2     
   4 N4             2.2194     0.5534     0.2194 N.2     
   5 C5             1.5439    -0.5716     0.3142 C.2     
   6 N6             2.0833    -1.8407     0.3886 N.pl3   
   7 C7            -0.8438    -1.1512     0.4145 C.ar    
   8 N8             1.7363     2.9286     0.0666 N.pl3   
   9 C9             3.0850     3.2913     0.1196 C.ar    
  10 C10            3.5383     4.4233    -0.5464 C.ar    
  11 C11            3.9962     2.5263     0.8463 C.ar    
  12 C12            5.3196     2.9349     0.8623 C.ar    
  13 C13            5.6961     4.0586     0.1732 C.ar    
  14 N14            4.8091     4.7698    -0.5017 N.ar    
  15 N15           -0.8930    -2.2306    -0.3529 N.ar    
  16 C16           -1.8995    -3.0871    -0.2787 C.ar    
  17 N17           -2.9074    -2.9334     0.5467 N.ar    
  18 C18           -2.9570    -1.8746     1.3687 C.ar    
  19 C19           -1.8983    -0.9326     1.3295 C.ar    
  20 C20            6.3409     2.1395     1.6447 C.3     
  21 C21            7.2598     1.4172     0.6543 C.3     
  22 C22            8.3947     2.3206     0.2093 C.3     
  23 C23            7.9616     3.4985    -0.6404 C.3     
  24 C24            7.1465     4.4991     0.1817 C.3     
  25 O25            7.7918     0.2404     1.2814 O.3     
  26 C26            7.3598    -0.8942     0.5045 C.3     
  27 C27            7.0298    -0.2698    -0.8741 C.3     
  28 O28            6.4856     1.0155    -0.4909 O.3     
  29 C29           -4.0180    -1.6806     2.2623 C.ar    
  30 C30           -4.0215    -0.5849     3.0795 C.ar    
  31 C31           -2.9760     0.3489     3.0357 C.ar    
  32 C32           -1.9262     0.1819     2.1781 C.ar    
  33 O33           -3.0053     1.4300     3.8598 O.3     
  34 C34           -1.9118     2.3453     3.7683 C.3     
  35 O35           -5.0514    -0.3979     3.9454 O.3     
  36 C36           -6.0871    -1.3824     3.9439 C.3     
  37 H37            3.0458    -1.9603     0.3724 H       
  38 H38            1.4997    -2.6124     0.4570 H       
  39 H39            1.0546     3.6102    -0.0414 H       
  40 H40            2.8406     5.0266    -1.1082 H       
  41 H41            3.6799     1.6426     1.3807 H       
  42 H42           -1.8906    -3.9509    -0.9269 H       
  43 H43            6.9305     2.8128     2.2670 H       
  44 H44            5.8322     1.4079     2.2724 H       
  45 H45            8.9013     2.7017     1.0959 H       
  46 H46            9.1067     1.7253    -0.3623 H       
  47 H47            8.8456     3.9976    -1.0373 H       
  48 H48            7.3533     3.1371    -1.4696 H       
  49 H49            7.2305     5.4916    -0.2611 H       
  50 H50            7.5172     4.5193     1.2065 H       
  51 H51            8.1618    -1.6267     0.4136 H       
  52 H52            6.4714    -1.3469     0.9449 H       
  53 H53            7.9319    -0.1487    -1.4738 H       
  54 H54            6.2872    -0.8656    -1.4049 H       
  55 H55           -4.8290    -2.3925     2.3050 H       
  56 H56           -1.1253     0.9059     2.1515 H       
  57 H57           -2.0593     3.1597     4.4776 H       
  58 H58           -0.9823     1.8254     4.0003 H       
  59 H59           -1.8595     2.7491     2.7572 H       
  60 H60           -6.5415    -1.4303     2.9543 H       
  61 H61           -5.6645    -2.3547     4.1972 H       
  62 H62           -6.8454    -1.1131     4.6792 H       
@<TRIPOS>BOND
   1    1    2 1
   2    1    3 2
   3    2    7 1
   4    2    5 1
   5    3    4 1
   6    3    8 1
   7    4    5 2
   8    5    6 1
   9    6   37 1
  10    6   38 1
  11    7   15 ar
  12    7   19 ar
  13    8    9 1
  14    8   39 1
  15    9   10 ar
  16    9   11 ar
  17   10   14 ar
  18   10   40 1
  19   11   12 ar
  20   11   41 1
  21   12   13 ar
  22   12   20 1
  23   13   14 ar
  24   13   24 1
  25   15   16 ar
  26   16   17 ar
  27   16   42 1
  28   17   18 ar
  29   18   19 ar
  30   18   29 ar
  31   19   32 ar
  32   20   21 1
  33   20   43 1
  34   20   44 1
  35   21   22 1
  36   21   25 1
  37   21   28 1
  38   22   23 1
  39   22   45 1
  40   22   46 1
  41   23   24 1
  42   23   47 1
  43   23   48 1
  44   24   49 1
  45   24   50 1
  46   25   26 1
  47   26   27 1
  48   26   51 1
  49   26   52 1
  50   27   28 1
  51   27   53 1
  52   27   54 1
  53   29   30 ar
  54   29   55 1
  55   30   31 ar
  56   30   35 1
  57   31   32 ar
  58   31   33 1
  59   32   56 1
  60   33   34 1
  61   34   57 1
  62   34   58 1
  63   34   59 1
  64   35   36 1
  65   36   60 1
  66   36   61 1
  67   36   62 1

#	End of record

