#	Name: ASD01140153
#	Creating user name:	WinNT
#	Creation time:	15. 06. 2019 19:00

#	Modifying user name:	WinNT
#	Modification time:	15. 06. 2019 19:00

#	Program:	/corina/corina34_cracker 3.40 0067  02.08.2006

@<TRIPOS>MOLECULE
ASD01140153
 154  154    0    0    0
SMALL
NO_CHARGES


@<TRIPOS>ATOM
   1 C1            -0.0187     1.5258     0.0104 C.3     
   2 C2             0.0021    -0.0041     0.0020 C.3     
   3 C3            -1.4333    -0.5336     0.0129 C.3     
   4 C4            -1.4126    -2.0635     0.0045 C.3     
   5 C5            -2.8479    -2.5931     0.0153 C.3     
   6 C6            -2.8272    -4.1229     0.0069 C.3     
   7 C7            -4.2626    -4.6525     0.0178 C.3     
   8 C8            -4.2418    -6.1823     0.0094 C.3     
   9 C9            -5.6772    -6.7119     0.0202 C.3     
  10 C10           -5.6565    -8.2417     0.0118 C.3     
  11 C11           -7.0918    -8.7713     0.0227 C.3     
  12 C12           -7.0711   -10.3012     0.0143 C.3     
  13 C13           -8.5065   -10.8307     0.0251 C.3     
  14 C14           -8.4857   -12.3606     0.0167 C.3     
  15 C15           -9.9211   -12.8902     0.0276 C.3     
  16 C16           -9.9004   -14.4200     0.0191 C.3     
  17 C17          -11.3358   -14.9496     0.0300 C.3     
  18 C18          -11.3153   -16.4564     0.0217 C.2     
  19 O19          -10.2609   -17.0462     0.0085 O.2     
  20 O20          -12.4685   -17.1433     0.0290 O.3     
  21 C21          -12.3729   -18.5921     0.0204 C.3     
  22 C22          -13.7786   -19.1961     0.0305 C.3     
  23 O23          -14.4398   -18.8623     1.2794 O.3     
  24 C24          -15.3435   -19.7393     1.7439 C.2     
  25 O25          -15.5745   -20.7525     1.1273 O.2     
  26 C26          -16.0701   -19.4604     3.0343 C.3     
  27 C27          -17.0359   -20.6085     3.3343 C.3     
  28 C28          -17.7736   -20.3253     4.6444 C.3     
  29 C29          -18.7249   -21.4562     4.9399 C.2     
  30 C30          -18.6568   -22.0870     6.0860 C.2     
  31 C31          -19.6081   -23.2178     6.3814 C.3     
  32 C32          -18.8238   -24.4507     6.7500 C.2     
  33 C33          -19.0612   -25.0636     7.8832 C.2     
  34 C34          -18.2769   -26.2965     8.2518 C.3     
  35 C35          -17.6334   -26.0981     9.6000 C.2     
  36 C36          -17.8460   -26.9629    10.5608 C.2     
  37 C37          -17.2026   -26.7645    11.9090 C.3     
  38 C38          -18.2651   -26.7656    12.9777 C.2     
  39 C39          -18.1774   -27.5952    13.9877 C.2     
  40 C40          -19.2399   -27.5963    15.0564 C.3     
  41 C41          -19.8108   -29.0078    15.2066 C.3     
  42 C42          -20.8895   -29.0089    16.2916 C.3     
  43 C43          -21.4604   -30.4205    16.4418 C.3     
  44 C44          -22.5391   -30.4215    17.5269 C.3     
  45 C45          -14.5850   -18.6309    -1.1404 C.3     
  46 O46          -14.5778   -17.2033    -1.0787 O.3     
  47 P47          -15.3306   -16.2751    -2.1575 P.3     
  48 O48          -16.7555   -16.6674    -2.2370 O.2     
  49 O49          -15.2228   -14.7332    -1.7071 O.3     
  50 C50          -15.8800   -13.6715    -2.4021 C.3     
  51 C51          -16.8450   -12.9602    -1.4515 C.3     
  52 O52          -16.1160   -12.4255    -0.3448 O.3     
  53 C53          -17.5487   -11.8235    -2.1956 C.3     
  54 O54          -18.4500   -11.1591    -1.3077 O.3     
  55 C55          -16.5069   -10.8258    -2.7054 C.3     
  56 C56          -15.5419   -11.5372    -3.6560 C.3     
  57 C57          -14.8382   -12.6738    -2.9119 C.3     
  58 O58          -14.1091   -12.1392    -1.8053 O.3     
  59 O59          -16.2709   -12.0718    -4.7627 O.3     
  60 P60          -15.9866   -11.6446    -6.2887 P.3     
  61 O61          -16.0842   -10.1733    -6.4154 O.2     
  62 O62          -14.5092   -12.1230    -6.7136 O.3     
  63 O63          -17.0735   -12.3395    -7.2520 O.3     
  64 O64          -17.1641    -9.7642    -3.4004 O.3     
  65 P65          -17.0563    -8.2222    -2.9500 P.3     
  66 O66          -17.4676    -8.0919    -1.5343 O.2     
  67 O67          -15.5356    -7.7199    -3.1154 O.3     
  68 O68          -18.0217    -7.3244    -3.8741 O.3     
  69 O69          -14.6412   -16.4622    -3.6004 O.3     
  70 H70            1.0039     1.9031     0.0027 H       
  71 H71           -0.5459     1.8868    -0.8726 H       
  72 H72           -0.5289     1.8773     0.9072 H       
  73 H73            0.5123    -0.3556    -0.8948 H       
  74 H74            0.5293    -0.3651     0.8851 H       
  75 H75           -1.9435    -0.1821     0.9097 H       
  76 H76           -1.9605    -0.1726    -0.8702 H       
  77 H77           -0.9024    -2.4150    -0.8923 H       
  78 H78           -0.8854    -2.4246     0.8875 H       
  79 H79           -3.3581    -2.2415     0.9121 H       
  80 H80           -3.3751    -2.2320    -0.8677 H       
  81 H81           -2.3170    -4.4744    -0.8899 H       
  82 H82           -2.3000    -4.4840     0.8900 H       
  83 H83           -4.7728    -4.3010     0.9146 H       
  84 H84           -4.7898    -4.2914    -0.8653 H       
  85 H85           -3.7316    -6.5338    -0.8874 H       
  86 H86           -3.7146    -6.5434     0.8924 H       
  87 H87           -6.1874    -6.3604     0.9170 H       
  88 H88           -6.2044    -6.3508    -0.8628 H       
  89 H89           -5.1463    -8.5933    -0.8850 H       
  90 H90           -5.1293    -8.6028     0.8949 H       
  91 H91           -7.6020    -8.4198     0.9195 H       
  92 H92           -7.6190    -8.4102    -0.8604 H       
  93 H93           -6.5609   -10.6527    -0.8825 H       
  94 H94           -6.5439   -10.6622     0.8973 H       
  95 H95           -9.0167   -10.4792     0.9219 H       
  96 H96           -9.0337   -10.4697    -0.8579 H       
  97 H97           -7.9755   -12.7121    -0.8801 H       
  98 H98           -7.9586   -12.7217     0.8998 H       
  99 H99          -10.4313   -12.5386     0.9244 H       
 100 H100         -10.4483   -12.5291    -0.8555 H       
 101 H101          -9.3902   -14.7715    -0.8776 H       
 102 H102          -9.3732   -14.7811     0.9022 H       
 103 H103         -11.8459   -14.5981     0.9268 H       
 104 H104         -11.8629   -14.5885    -0.8531 H       
 105 H105         -11.8447   -18.9160    -0.8765 H       
 106 H106         -11.8277   -18.9256     0.9034 H       
 107 H107         -13.7092   -20.2796    -0.0655 H       
 108 H108         -15.3480   -19.3716     3.8460 H       
 109 H109         -16.6297   -18.5295     2.9424 H       
 110 H110         -17.7580   -20.6973     2.5226 H       
 111 H111         -16.4764   -21.5394     3.4262 H       
 112 H112         -17.0515   -20.2366     5.4561 H       
 113 H113         -18.3332   -19.3945     4.5525 H       
 114 H114         -19.4628   -21.7466     4.2067 H       
 115 H115         -17.9189   -21.7966     6.8191 H       
 116 H116         -20.2576   -22.9389     7.2111 H       
 117 H117         -20.2139   -23.4229     5.4988 H       
 118 H118         -18.0660   -24.8291     6.0798 H       
 119 H119         -19.8189   -24.6852     8.5533 H       
 120 H120         -18.9472   -27.1550     8.2919 H       
 121 H121         -17.5046   -26.4731     7.5031 H       
 122 H122         -16.9971   -25.2431     9.7741 H       
 123 H123         -18.4824   -27.8179    10.3867 H       
 124 H124         -16.4969   -27.5736    12.0974 H       
 125 H125         -16.6744   -25.8112    11.9228 H       
 126 H126         -19.0988   -26.0824    12.9110 H       
 127 H127         -17.3436   -28.2785    14.0545 H       
 128 H128         -18.8033   -27.2783    16.0032 H       
 129 H129         -20.0383   -26.9094    14.7757 H       
 130 H130         -20.2474   -29.3258    14.2599 H       
 131 H131         -19.0123   -29.6947    15.4874 H       
 132 H132         -20.4529   -28.6909    17.2384 H       
 133 H133         -21.6879   -28.3220    16.0109 H       
 134 H134         -21.8970   -30.7384    15.4951 H       
 135 H135         -20.6619   -31.1073    16.7226 H       
 136 H136         -23.3375   -29.7347    17.2461 H       
 137 H137         -22.9458   -31.4271    17.6339 H       
 138 H138         -22.1024   -30.1035    18.4736 H       
 139 H139         -14.1382   -18.9562    -2.0799 H       
 140 H140         -15.6118   -18.9919    -1.0823 H       
 141 H141         -16.4362   -14.0794    -3.2462 H       
 142 H142         -17.5873   -13.6710    -1.0882 H       
 143 H143         -16.6656   -11.9596     0.3001 H       
 144 H144         -18.1048   -12.2313    -3.0397 H       
 145 H145         -19.1391   -11.7324    -0.9452 H       
 146 H146         -15.9507   -10.4180    -1.8613 H       
 147 H147         -14.7996   -10.8264    -4.0193 H       
 148 H148         -14.1507   -13.1806    -3.5892 H       
 149 H149         -13.6368   -12.8050    -1.2869 H       
 150 H150         -14.3731   -13.0786    -6.6547 H       
 151 H151         -16.9627   -12.1258    -8.1885 H       
 152 H152         -15.1987    -7.7771    -4.0200 H       
 153 H153         -18.0075    -6.3818    -3.6585 H       
 154 H154         -13.7045   -16.2232    -3.6227 H       
@<TRIPOS>BOND
   1    1    2 1
   2    1   70 1
   3    1   71 1
   4    1   72 1
   5    2    3 1
   6    2   73 1
   7    2   74 1
   8    3    4 1
   9    3   75 1
  10    3   76 1
  11    4    5 1
  12    4   77 1
  13    4   78 1
  14    5    6 1
  15    5   79 1
  16    5   80 1
  17    6    7 1
  18    6   81 1
  19    6   82 1
  20    7    8 1
  21    7   83 1
  22    7   84 1
  23    8    9 1
  24    8   85 1
  25    8   86 1
  26    9   10 1
  27    9   87 1
  28    9   88 1
  29   10   11 1
  30   10   89 1
  31   10   90 1
  32   11   12 1
  33   11   91 1
  34   11   92 1
  35   12   13 1
  36   12   93 1
  37   12   94 1
  38   13   14 1
  39   13   95 1
  40   13   96 1
  41   14   15 1
  42   14   97 1
  43   14   98 1
  44   15   16 1
  45   15   99 1
  46   15  100 1
  47   16   17 1
  48   16  101 1
  49   16  102 1
  50   17   18 1
  51   17  103 1
  52   17  104 1
  53   18   19 2
  54   18   20 1
  55   20   21 1
  56   21   22 1
  57   21  105 1
  58   21  106 1
  59   22   23 1
  60   22   45 1
  61   22  107 1
  62   23   24 1
  63   24   25 2
  64   24   26 1
  65   26   27 1
  66   26  108 1
  67   26  109 1
  68   27   28 1
  69   27  110 1
  70   27  111 1
  71   28   29 1
  72   28  112 1
  73   28  113 1
  74   29   30 2
  75   29  114 1
  76   30   31 1
  77   30  115 1
  78   31   32 1
  79   31  116 1
  80   31  117 1
  81   32   33 2
  82   32  118 1
  83   33   34 1
  84   33  119 1
  85   34   35 1
  86   34  120 1
  87   34  121 1
  88   35   36 2
  89   35  122 1
  90   36   37 1
  91   36  123 1
  92   37   38 1
  93   37  124 1
  94   37  125 1
  95   38   39 2
  96   38  126 1
  97   39   40 1
  98   39  127 1
  99   40   41 1
 100   40  128 1
 101   40  129 1
 102   41   42 1
 103   41  130 1
 104   41  131 1
 105   42   43 1
 106   42  132 1
 107   42  133 1
 108   43   44 1
 109   43  134 1
 110   43  135 1
 111   44  136 1
 112   44  137 1
 113   44  138 1
 114   45   46 1
 115   45  139 1
 116   45  140 1
 117   46   47 1
 118   47   48 2
 119   47   49 1
 120   47   69 1
 121   49   50 1
 122   50   51 1
 123   50   57 1
 124   50  141 1
 125   51   52 1
 126   51   53 1
 127   51  142 1
 128   52  143 1
 129   53   54 1
 130   53   55 1
 131   53  144 1
 132   54  145 1
 133   55   56 1
 134   55   64 1
 135   55  146 1
 136   56   57 1
 137   56   59 1
 138   56  147 1
 139   57   58 1
 140   57  148 1
 141   58  149 1
 142   59   60 1
 143   60   61 2
 144   60   62 1
 145   60   63 1
 146   62  150 1
 147   63  151 1
 148   64   65 1
 149   65   66 2
 150   65   67 1
 151   65   68 1
 152   67  152 1
 153   68  153 1
 154   69  154 1

#	End of record

