#	Name: ASD01884560
#	Creating user name:	WinNT
#	Creation time:	15. 06. 2019 19:48

#	Modifying user name:	WinNT
#	Modification time:	15. 06. 2019 19:48

#	Program:	/corina/corina34_cracker 3.40 0067  02.08.2006

@<TRIPOS>MOLECULE
ASD01884560
  39   41    0    0    0
SMALL
NO_CHARGES


@<TRIPOS>ATOM
   1 C1            -0.0164     1.3576     0.0095 C.2     
   2 C2             0.0021    -0.0041     0.0020 C.2     
   3 C3             1.2440    -0.6751    -0.0134 C.2     
   4 C4             2.4024     0.0465    -0.0206 C.2     
   5 N5             2.3700     1.4024    -0.0126 N.am    
   6 C6             1.1986     2.0652     0.0017 C.2     
   7 O7             1.1911     3.2857     0.0083 O.2     
   8 C8             3.6266     2.1554    -0.0196 C.3     
   9 C9             4.0447     2.4218    -1.4427 C.2     
  10 C10            1.2897    -2.1584    -0.0214 C.ar    
  11 C11            0.8124    -2.8774     1.0728 C.ar    
  12 C12            1.8048    -2.8351    -1.1254 C.ar    
  13 C13            1.8460    -4.2138    -1.1298 C.ar    
  14 C14            1.3747    -4.9272    -0.0363 C.ar    
  15 C15            0.8562    -4.2560     1.0626 C.ar    
  16 O16            1.4158    -6.2856    -0.0439 O.3     
  17 C17            0.9144    -6.9563     1.1140 C.3     
  18 C18            3.7021     3.4967    -2.1752 C.2     
  19 C19            4.3091     3.3393    -3.4423 C.2     
  20 C20            4.9863     2.1775    -3.4084 C.2     
  21 O21            4.8273     1.6290    -2.1929 O.3     
  22 C22            5.7914     1.5934    -4.5405 C.3     
  23 F23            7.1114     2.0494    -4.4578 F       
  24 F24            5.7741     0.1972    -4.4531 F       
  25 F25            5.2362     1.9911    -5.7614 F       
  26 H26           -0.9563     1.8895     0.0169 H       
  27 H27           -0.9217    -0.5635     0.0082 H       
  28 H28            3.3528    -0.4664    -0.0325 H       
  29 H29            3.4854     3.1026     0.5010 H       
  30 H30            4.4003     1.5759     0.4840 H       
  31 H31            0.4089    -2.3558     1.9281 H       
  32 H32            2.1710    -2.2806    -1.9768 H       
  33 H33            2.2451    -4.7388    -1.9851 H       
  34 H34            0.4906    -4.8137     1.9121 H       
  35 H35           -0.1340    -6.6958     1.2593 H       
  36 H36            1.0055    -8.0339     0.9777 H       
  37 H37            1.4892    -6.6507     1.9883 H       
  38 H38            3.0819     4.3215    -1.8567 H       
  39 H39            4.2417     4.0208    -4.2774 H       
@<TRIPOS>BOND
   1    1    2 2
   2    1    6 1
   3    1   26 1
   4    2    3 1
   5    2   27 1
   6    3    4 2
   7    3   10 1
   8    4    5 1
   9    4   28 1
  10    5    6 am
  11    5    8 1
  12    6    7 2
  13    8    9 1
  14    8   29 1
  15    8   30 1
  16    9   18 2
  17    9   21 1
  18   10   11 ar
  19   10   12 ar
  20   11   15 ar
  21   11   31 1
  22   12   13 ar
  23   12   32 1
  24   13   14 ar
  25   13   33 1
  26   14   15 ar
  27   14   16 1
  28   15   34 1
  29   16   17 1
  30   17   35 1
  31   17   36 1
  32   17   37 1
  33   18   19 1
  34   18   38 1
  35   19   20 2
  36   19   39 1
  37   20   21 1
  38   20   22 1
  39   22   23 1
  40   22   24 1
  41   22   25 1

#	End of record

