#	Name: ASD01811613
#	Creating user name:	WinNT
#	Creation time:	15. 06. 2019 19:27

#	Modifying user name:	WinNT
#	Modification time:	15. 06. 2019 19:27

#	Program:	/corina/corina34_cracker 3.40 0067  02.08.2006

@<TRIPOS>MOLECULE
ASD01811613
  61   65    0    0    0
SMALL
NO_CHARGES


@<TRIPOS>ATOM
   1 C1            -7.6585     2.4717    -4.1305 C.1     
   2 C2            -6.6481     3.2231    -3.4484 C.ar    
   3 C3            -5.4813     2.5914    -3.0047 C.ar    
   4 C4            -4.5113     3.3245    -2.3471 C.ar    
   5 C5            -4.6935     4.6776    -2.1280 C.ar    
   6 C6            -5.8457     5.3077    -2.5646 C.ar    
   7 C7            -6.8199     4.5913    -3.2278 C.ar    
   8 N8            -8.4600     1.8756    -4.6716 N.1     
   9 F9            -5.3034     1.2692    -3.2179 F       
  10 N10           -2.5389     7.8368    -0.3120 N.am    
  11 C11           -2.0191     7.3675    -1.6036 C.3     
  12 C12           -3.1219     6.5858    -2.3244 C.3     
  13 C13           -3.6321     5.4701    -1.4094 C.3     
  14 C14           -4.2254     6.0818    -0.1383 C.3     
  15 C15           -3.1351     6.8579     0.6072 C.3     
  16 C16           -2.4651     9.1395     0.0256 C.2     
  17 C17           -3.0687     9.6108     1.2904 C.ar    
  18 C18           -4.0100    10.6427     1.2751 C.ar    
  19 C19           -4.5744    11.0837     2.4552 C.ar    
  20 C20           -4.2126    10.5092     3.6579 C.ar    
  21 C21           -3.2730     9.4770     3.6874 C.ar    
  22 C22           -2.7041     9.0228     2.4997 C.ar    
  23 O23           -1.9024     9.9269    -0.7098 O.2     
  24 C24           -2.8864     8.8632     4.9767 C.2     
  25 N25           -1.9036     7.9291     5.1549 N.pl3   
  26 C26           -1.8755     7.6367     6.4812 C.2     
  27 C27           -2.8323     8.3881     7.0797 C.2     
  28 N28           -3.4269     9.1280     6.1490 N.2     
  29 C29           -0.9862     6.6779     7.2297 C.3     
  30 C30           -3.1032     8.3305     8.5641 C.3     
  31 C31           -2.4356     7.0609     9.1123 C.3     
  32 O32           -1.0925     6.9758     8.6289 O.3     
  33 C33           -4.8332    10.9978     4.9413 C.3     
  34 C34           -4.4100    11.2761    -0.0325 C.3     
  35 H35           -3.6096     2.8395    -2.0035 H       
  36 H36           -5.9806     6.3648    -2.3892 H       
  37 H37           -7.7161     5.0864    -3.5715 H       
  38 H38           -1.7214     8.2229    -2.2102 H       
  39 H39           -1.1597     6.7180    -1.4375 H       
  40 H40           -3.9434     7.2587    -2.5705 H       
  41 H41           -2.7207     6.1508    -3.2397 H       
  42 H42           -2.8050     4.8119    -1.1435 H       
  43 H43           -5.0365     6.7594    -0.4050 H       
  44 H44           -4.6097     5.2881     0.5024 H       
  45 H45           -2.3667     6.1667     0.9537 H       
  46 H46           -3.5738     7.3769     1.4594 H       
  47 H47           -5.3017    11.8819     2.4379 H       
  48 H48           -1.9804     8.2214     2.5167 H       
  49 H49           -1.3361     7.5483     4.4666 H       
  50 H50           -1.3107     5.6538     7.0453 H       
  51 H51            0.0465     6.8022     6.9039 H       
  52 H52           -2.6809     9.2095     9.0510 H       
  53 H53           -4.1777     8.2891     8.7421 H       
  54 H54           -2.4274     7.0969    10.2017 H       
  55 H55           -2.9957     6.1856     8.7832 H       
  56 H56           -5.6771    10.3596     5.2029 H       
  57 H57           -4.0914    10.9646     5.7393 H       
  58 H58           -5.1799    12.0229     4.8100 H       
  59 H59           -5.1999    10.6850    -0.4960 H       
  60 H60           -4.7727    12.2877     0.1497 H       
  61 H61           -3.5469    11.3138    -0.6971 H       
@<TRIPOS>BOND
   1    1    2 1
   2    1    8 3
   3    2    3 ar
   4    2    7 ar
   5    3    4 ar
   6    3    9 1
   7    4    5 ar
   8    4   35 1
   9    5    6 ar
  10    5   13 1
  11    6    7 ar
  12    6   36 1
  13    7   37 1
  14   10   11 1
  15   10   15 1
  16   10   16 am
  17   11   12 1
  18   11   38 1
  19   11   39 1
  20   12   13 1
  21   12   40 1
  22   12   41 1
  23   13   14 1
  24   13   42 1
  25   14   15 1
  26   14   43 1
  27   14   44 1
  28   15   45 1
  29   15   46 1
  30   16   17 1
  31   16   23 2
  32   17   18 ar
  33   17   22 ar
  34   18   19 ar
  35   18   34 1
  36   19   20 ar
  37   19   47 1
  38   20   21 ar
  39   20   33 1
  40   21   22 ar
  41   21   24 1
  42   22   48 1
  43   24   25 1
  44   24   28 2
  45   25   26 1
  46   25   49 1
  47   26   27 2
  48   26   29 1
  49   27   28 1
  50   27   30 1
  51   29   32 1
  52   29   50 1
  53   29   51 1
  54   30   31 1
  55   30   52 1
  56   30   53 1
  57   31   32 1
  58   31   54 1
  59   31   55 1
  60   33   56 1
  61   33   57 1
  62   33   58 1
  63   34   59 1
  64   34   60 1
  65   34   61 1

#	End of record

