#	Name: ASD03730604
#	Creating user name:	WinNT
#	Creation time:	15. 06. 2019 20:44

#	Modifying user name:	WinNT
#	Modification time:	15. 06. 2019 20:44

#	Program:	/corina/corina34_cracker 3.40 0067  02.08.2006

@<TRIPOS>MOLECULE
ASD03730604
  57   62    0    0    0
SMALL
NO_CHARGES


@<TRIPOS>ATOM
   1 O1            -0.4713     1.1311     1.3547 O.3     
   2 C2            -0.4005    -0.3050     1.4309 C.3     
   3 O3             0.6745    -0.6428     0.5347 O.3     
   4 C4             1.4935     0.4498     0.5188 C.ar    
   5 C5             0.7878     1.5407     1.0211 C.ar    
   6 C6             2.8063     0.6038     0.1112 C.ar    
   7 C7             3.4299     1.8450     0.1958 C.ar    
   8 C8             2.7114     2.9298     0.6893 C.ar    
   9 C9             1.4045     2.7778     1.1031 C.ar    
  10 O10            4.7043     2.2045    -0.1307 O.3     
  11 C11            3.6334     4.1182     0.6283 C.3     
  12 C12            4.7705     3.6355    -0.2828 C.3     
  13 N13            3.0651     6.2975     1.0160 N.am    
  14 C14            2.9534     5.3378     0.0758 C.2     
  15 C15            4.1350     4.5223     1.9826 C.ar    
  16 C16            4.8374     3.8623     2.9815 C.ar    
  17 C17            5.1629     4.5339     4.1594 C.ar    
  18 C18            4.7839     5.8515     4.3231 C.ar    
  19 C19            4.0860     6.5073     3.3295 C.ar    
  20 C20            3.7541     5.8495     2.1462 C.ar    
  21 O21            2.4108     5.4396    -1.0042 O.2     
  22 C22            2.5268     7.6521     0.8699 C.3     
  23 C23            1.0949     7.6927     1.4075 C.3     
  24 C24            0.5327     9.1075     1.2549 C.3     
  25 C25           -0.8991     9.1480     1.7926 C.3     
  26 C26           -1.4613    10.5628     1.6400 C.3     
  27 C27            5.2402     2.4461     2.7967 C.ar    
  28 C28            6.1356     2.1002     1.7866 C.ar    
  29 C29            6.5071     0.7819     1.6187 C.ar    
  30 C30            5.9916    -0.1964     2.4517 C.ar    
  31 C31            5.1013     0.1422     3.4564 C.ar    
  32 C32            4.7286     1.4586     3.6362 C.ar    
  33 Cl33           6.4628    -1.8532     2.2355 Cl      
  34 H34           -0.1666    -0.6236     2.4468 H       
  35 H35           -1.3352    -0.7530     1.0937 H       
  36 H36            3.3512    -0.2450    -0.2749 H       
  37 H37            0.8607     3.6260     1.4920 H       
  38 H38            5.7314     4.0176     0.0618 H       
  39 H39            4.5864     3.9239    -1.3177 H       
  40 H40            5.7095     4.0258     4.9401 H       
  41 H41            5.0351     6.3724     5.2353 H       
  42 H42            3.7948     7.5378     3.4697 H       
  43 H43            3.1458     8.3516     1.4317 H       
  44 H44            2.5273     7.9317    -0.1836 H       
  45 H45            0.4759     6.9932     0.8457 H       
  46 H46            1.0943     7.4132     2.4611 H       
  47 H47            1.1517     9.8069     1.8168 H       
  48 H48            0.5333     9.3870     0.2014 H       
  49 H49           -1.5181     8.4485     1.2307 H       
  50 H50           -0.8997     8.8685     2.8461 H       
  51 H51           -0.8423    11.2623     2.2018 H       
  52 H52           -1.4607    10.8423     0.5864 H       
  53 H53           -2.4814    10.5917     2.0230 H       
  54 H54            6.5380     2.8626     1.1361 H       
  55 H55            7.2008     0.5127     0.8359 H       
  56 H56            4.7014    -0.6246     4.1032 H       
  57 H57            4.0380     1.7225     4.4235 H       
@<TRIPOS>BOND
   1    1    2 1
   2    1    5 1
   3    2    3 1
   4    2   34 1
   5    2   35 1
   6    3    4 1
   7    4    5 ar
   8    4    6 ar
   9    5    9 ar
  10    6    7 ar
  11    6   36 1
  12    7    8 ar
  13    7   10 1
  14    8    9 ar
  15    8   11 1
  16    9   37 1
  17   10   12 1
  18   11   12 1
  19   11   14 1
  20   11   15 1
  21   12   38 1
  22   12   39 1
  23   13   14 am
  24   13   20 1
  25   13   22 1
  26   14   21 2
  27   15   16 ar
  28   15   20 ar
  29   16   17 ar
  30   16   27 1
  31   17   18 ar
  32   17   40 1
  33   18   19 ar
  34   18   41 1
  35   19   20 ar
  36   19   42 1
  37   22   23 1
  38   22   43 1
  39   22   44 1
  40   23   24 1
  41   23   45 1
  42   23   46 1
  43   24   25 1
  44   24   47 1
  45   24   48 1
  46   25   26 1
  47   25   49 1
  48   25   50 1
  49   26   51 1
  50   26   52 1
  51   26   53 1
  52   27   28 ar
  53   27   32 ar
  54   28   29 ar
  55   28   54 1
  56   29   30 ar
  57   29   55 1
  58   30   31 ar
  59   30   33 1
  60   31   32 ar
  61   31   56 1
  62   32   57 1

#	End of record

