#	Name: ASD01180293
#	Creating user name:	WinNT
#	Creation time:	15. 06. 2019 19:07

#	Modifying user name:	WinNT
#	Modification time:	15. 06. 2019 19:07

#	Program:	/corina/corina34_cracker 3.40 0067  02.08.2006

@<TRIPOS>MOLECULE
ASD01180293
  59   61    0    0    0
SMALL
NO_CHARGES


@<TRIPOS>ATOM
   1 C1            -2.1321    -2.2811    -6.7222 C.2     
   2 C2            -1.6333    -2.9754    -5.4812 C.3     
   3 C3            -0.5538    -3.9901    -5.8634 C.3     
   4 O4            -1.6715    -2.5684    -7.8017 O.2     
   5 O5            -3.0920    -1.3475    -6.6291 O.3     
   6 C6             0.8910    -5.6064    -4.7512 C.2     
   7 C7             1.3793    -6.2862    -3.5361 C.ar    
   8 C8             2.3786    -7.2679    -3.6227 C.ar    
   9 C9             2.8014    -7.8725    -2.4700 C.ar    
  10 C10            2.2323    -7.4991    -1.2535 C.ar    
  11 N11            1.2891    -6.5687    -1.1995 N.ar    
  12 C12            0.8583    -5.9581    -2.2837 C.ar    
  13 O13            1.3545    -5.8955    -5.8374 O.2     
  14 N14           -0.0689    -4.6651    -4.6570 N.am    
  15 N15            2.6575    -8.1087    -0.0853 N.pl3   
  16 C16            3.7830    -9.0460    -0.1159 C.3     
  17 C17            4.4266    -9.1156     1.2705 C.3     
  18 C18            5.0452    -7.7591     1.6143 C.3     
  19 C19            5.7904    -7.8615     2.9466 C.3     
  20 C20            2.4066   -12.8439    -1.2060 C.ar    
  21 N21            3.5615   -12.4100    -1.6918 N.ar    
  22 C22            4.0247   -11.2151    -1.3674 C.ar    
  23 C23            3.2871   -10.4137    -0.5087 C.ar    
  24 C24            2.0835   -10.8986    -0.0191 C.ar    
  25 N25            1.6774   -12.1027    -0.3831 N.ar    
  26 C26            1.9158   -14.1877    -1.5972 C.ar    
  27 C27            0.7043   -14.6626    -1.0978 C.ar    
  28 C28            0.2525   -15.9138    -1.4652 C.ar    
  29 C29            0.9999   -16.6964    -2.3269 C.ar    
  30 C30            2.2032   -16.2304    -2.8252 C.ar    
  31 C31            2.6615   -14.9781    -2.4699 C.ar    
  32 C32            0.5014   -18.0621    -2.7239 C.3     
  33 F33           -0.2848   -17.9548    -3.8761 F       
  34 F34            1.5919   -18.9003    -2.9798 F       
  35 F35           -0.2655   -18.5990    -1.6843 F       
  36 H36           -1.2133    -2.2386    -4.7966 H       
  37 H37           -2.4616    -3.4916    -4.9959 H       
  38 H38           -0.9739    -4.7270    -6.5481 H       
  39 H39            0.2745    -3.4739    -6.3488 H       
  40 H40           -3.3795    -0.9298    -7.4524 H       
  41 H41            2.8039    -7.5403    -4.5773 H       
  42 H42            3.5684    -8.6321    -2.5026 H       
  43 H43            0.0924    -5.2008    -2.2037 H       
  44 H44           -0.4387    -4.4345    -3.7904 H       
  45 H45            2.2103    -7.9151     0.7534 H       
  46 H46            4.5206    -8.7045    -0.8421 H       
  47 H47            3.6675    -9.3670     2.0112 H       
  48 H48            5.2034    -9.8802     1.2724 H       
  49 H49            5.7430    -7.4685     0.8290 H       
  50 H50            4.2571    -7.0105     1.6953 H       
  51 H51            6.2311    -6.8951     3.1916 H       
  52 H52            5.0925    -8.1521     3.7319 H       
  53 H53            6.5785    -8.6101     2.8656 H       
  54 H54            4.9663   -10.8673    -1.7660 H       
  55 H55            1.4851   -10.2994     0.6512 H       
  56 H56            0.1203   -14.0527    -0.4244 H       
  57 H57           -0.6861   -16.2828    -1.0789 H       
  58 H58            2.7829   -16.8459    -3.4971 H       
  59 H59            3.5987   -14.6131    -2.8636 H       
@<TRIPOS>BOND
   1    1    2 1
   2    1    4 2
   3    1    5 1
   4    2    3 1
   5    2   36 1
   6    2   37 1
   7    3   14 1
   8    3   38 1
   9    3   39 1
  10    5   40 1
  11    6    7 1
  12    6   13 2
  13    6   14 am
  14    7    8 ar
  15    7   12 ar
  16    8    9 ar
  17    8   41 1
  18    9   10 ar
  19    9   42 1
  20   10   11 ar
  21   10   15 1
  22   11   12 ar
  23   12   43 1
  24   14   44 1
  25   15   16 1
  26   15   45 1
  27   16   17 1
  28   16   23 1
  29   16   46 1
  30   17   18 1
  31   17   47 1
  32   17   48 1
  33   18   19 1
  34   18   49 1
  35   18   50 1
  36   19   51 1
  37   19   52 1
  38   19   53 1
  39   20   21 ar
  40   20   25 ar
  41   20   26 1
  42   21   22 ar
  43   22   23 ar
  44   22   54 1
  45   23   24 ar
  46   24   25 ar
  47   24   55 1
  48   26   27 ar
  49   26   31 ar
  50   27   28 ar
  51   27   56 1
  52   28   29 ar
  53   28   57 1
  54   29   30 ar
  55   29   32 1
  56   30   31 ar
  57   30   58 1
  58   31   59 1
  59   32   33 1
  60   32   34 1
  61   32   35 1

#	End of record

