#	Name: ASD03540515
#	Creating user name:	WinNT
#	Creation time:	15. 06. 2019 20:43

#	Modifying user name:	WinNT
#	Modification time:	15. 06. 2019 20:43

#	Program:	/corina/corina34_cracker 3.40 0067  02.08.2006

@<TRIPOS>MOLECULE
ASD03540515
  43   46    0    0    0
SMALL
NO_CHARGES


@<TRIPOS>ATOM
   1 C1            -0.0161     1.3389     0.0094 C.2     
   2 N2             0.0021    -0.0041     0.0020 N.am    
   3 C3             1.1968    -0.6965    -0.0126 C.ar    
   4 C4             2.3989     0.0391    -0.0201 C.ar    
   5 C5             2.3225     1.5104    -0.0120 C.2     
   6 N6             1.0995     2.0850     0.0028 N.am    
   7 C7             3.6164    -0.6318    -0.0344 C.ar    
   8 C8             3.5904    -2.0318    -0.0408 C.ar    
   9 C9             2.3565    -2.6897    -0.0326 C.ar    
  10 N10            1.2235    -2.0201    -0.0191 N.ar    
  11 C11            4.8493    -2.8032    -0.0564 C.2     
  12 O12            5.9177    -2.2230    -0.0638 O.2     
  13 N13            4.8141    -4.1505    -0.0624 N.am    
  14 C14            6.0631    -4.9159    -0.0779 C.3     
  15 O15            4.8910   -10.4069    -0.3536 O.3     
  16 C16            5.2566   -10.6013    -1.7326 C.3     
  17 O17            5.1078    -9.2923    -2.3137 O.3     
  18 C18            5.3058    -8.4136    -1.2882 C.ar    
  19 C19            5.1724    -9.0990    -0.0827 C.ar    
  20 C20            5.5939    -7.0589    -1.2821 C.ar    
  21 C21            5.7491    -6.3898    -0.0819 C.ar    
  22 C22            5.6173    -7.0699     1.1140 C.ar    
  23 C23            5.3292    -8.4224     1.1156 C.ar    
  24 O24            3.3317     2.1885    -0.0180 O.2     
  25 O25           -1.0922     1.9044     0.0175 O.2     
  26 C26            0.9897     3.5459     0.0116 C.3     
  27 C27           -1.2622    -0.7441     0.0101 C.3     
  28 H28            4.5513    -0.0911    -0.0408 H       
  29 H29            2.3328    -3.7694    -0.0375 H       
  30 H30            3.9617    -4.6134    -0.0565 H       
  31 H31            6.6329    -4.6634    -0.9722 H       
  32 H32            6.6499    -4.6718     0.8077 H       
  33 H33            6.2897   -10.9399    -1.8108 H       
  34 H34            4.5824   -11.3117    -2.2111 H       
  35 H35            5.6982    -6.5250    -2.2151 H       
  36 H36            5.7392    -6.5439     2.0493 H       
  37 H37            5.2260    -8.9512     2.0516 H       
  38 H38            0.9722     3.9027     1.0414 H       
  39 H39            1.8450     3.9777    -0.5081 H       
  40 H40            0.0701     3.8442    -0.4919 H       
  41 H41           -2.0949    -0.0408     0.0218 H       
  42 H42           -1.3247    -1.3663    -0.8827 H       
  43 H43           -1.3078    -1.3759     0.8971 H       
@<TRIPOS>BOND
   1    1    2 am
   2    1    6 am
   3    1   25 2
   4    2    3 1
   5    2   27 1
   6    3    4 ar
   7    3   10 ar
   8    4    5 1
   9    4    7 ar
  10    5    6 am
  11    5   24 2
  12    6   26 1
  13    7    8 ar
  14    7   28 1
  15    8    9 ar
  16    8   11 1
  17    9   10 ar
  18    9   29 1
  19   11   12 2
  20   11   13 am
  21   13   14 1
  22   13   30 1
  23   14   21 1
  24   14   31 1
  25   14   32 1
  26   15   16 1
  27   15   19 1
  28   16   17 1
  29   16   33 1
  30   16   34 1
  31   17   18 1
  32   18   19 ar
  33   18   20 ar
  34   19   23 ar
  35   20   21 ar
  36   20   35 1
  37   21   22 ar
  38   22   23 ar
  39   22   36 1
  40   23   37 1
  41   26   38 1
  42   26   39 1
  43   26   40 1
  44   27   41 1
  45   27   42 1
  46   27   43 1

#	End of record

