#	Name: ASD01914336
#	Creating user name:	WinNT
#	Creation time:	15. 06. 2019 20:03

#	Modifying user name:	WinNT
#	Modification time:	15. 06. 2019 20:03

#	Program:	/corina/corina34_cracker 3.40 0067  02.08.2006

@<TRIPOS>MOLECULE
ASD01914336
  40   43    0    0    0
SMALL
NO_CHARGES


@<TRIPOS>ATOM
   1 C1            -0.0455     1.4063     0.1395 C.2     
   2 N2            -0.0110     0.0658     0.0193 N.2     
   3 C3            -1.2193    -0.3932     0.0020 C.2     
   4 N4            -2.0884     0.6620     0.1225 N.am    
   5 C5            -1.3353     1.7943     0.2093 C.2     
   6 C6            -3.4228     0.4903     0.1537 C.2     
   7 N7            -3.9116    -0.7622     0.2537 N.am    
   8 C8            -5.2758    -0.9672     0.0471 C.ar    
   9 C9             1.1534     2.3178     0.1933 C.3     
  10 O10            0.7167     3.6721     0.3245 O.3     
  11 C11            1.6807     4.6279     0.3877 C.ar    
  12 C12            1.3277     5.9634     0.5153 C.ar    
  13 C13            2.3096     6.9331     0.5793 C.ar    
  14 C14            3.6432     6.5735     0.5164 C.ar    
  15 C15            3.9976     5.2431     0.3888 C.ar    
  16 C16            3.0196     4.2691     0.3305 C.ar    
  17 C17           -1.7101    -1.8148    -0.1315 C.3     
  18 C18           -3.0699    -1.9125     0.5690 C.3     
  19 O19           -4.1719     1.4449     0.0935 O.2     
  20 N20           -6.1114    -0.8947     1.0705 N.ar    
  21 C21           -7.4089    -1.0817     0.9199 C.ar    
  22 C22           -7.9443    -1.3629    -0.3236 C.ar    
  23 C23           -7.0991    -1.4475    -1.4240 C.ar    
  24 C24           -5.7446    -1.2401    -1.2329 C.ar    
  25 F25           -9.2740    -1.5537    -0.4674 F       
  26 H26           -1.7003     2.8059     0.3075 H       
  27 H27            1.7740     2.0517     1.0490 H       
  28 H28            1.7331     2.2102    -0.7234 H       
  29 H29            0.2862     6.2449     0.5641 H       
  30 H30            2.0353     7.9730     0.6783 H       
  31 H31            4.4093     7.3330     0.5666 H       
  32 H32            5.0399     4.9648     0.3391 H       
  33 H33            3.2969     3.2301     0.2309 H       
  34 H34           -1.8193    -2.0697    -1.1856 H       
  35 H35           -1.0020    -2.4953     0.3416 H       
  36 H36           -2.9140    -1.9560     1.6469 H       
  37 H37           -3.5738    -2.8231     0.2451 H       
  38 H38           -8.0606    -1.0148     1.7784 H       
  39 H39           -7.4913    -1.6661    -2.4063 H       
  40 H40           -5.0594    -1.2982    -2.0657 H       
@<TRIPOS>BOND
   1    1    2 1
   2    1    9 1
   3    1    5 2
   4    2    3 2
   5    3    4 1
   6    3   17 1
   7    4    5 1
   8    4    6 am
   9    5   26 1
  10    6    7 am
  11    6   19 2
  12    7    8 1
  13    7   18 1
  14    8   20 ar
  15    8   24 ar
  16    9   10 1
  17    9   27 1
  18    9   28 1
  19   10   11 1
  20   11   12 ar
  21   11   16 ar
  22   12   13 ar
  23   12   29 1
  24   13   14 ar
  25   13   30 1
  26   14   15 ar
  27   14   31 1
  28   15   16 ar
  29   15   32 1
  30   16   33 1
  31   17   18 1
  32   17   34 1
  33   17   35 1
  34   18   36 1
  35   18   37 1
  36   20   21 ar
  37   21   22 ar
  38   21   38 1
  39   22   23 ar
  40   22   25 1
  41   23   24 ar
  42   23   39 1
  43   24   40 1

#	End of record

