#	Name: ASD02500170
#	Creating user name:	WinNT
#	Creation time:	15. 06. 2019 20:22

#	Modifying user name:	WinNT
#	Modification time:	15. 06. 2019 20:22

#	Program:	/corina/corina34_cracker 3.40 0067  02.08.2006

@<TRIPOS>MOLECULE
ASD02500170
  61   65    0    0    0
SMALL
NO_CHARGES


@<TRIPOS>ATOM
   1 N1             1.2980     2.2616     3.0751 N.am    
   2 C2             0.7599     1.0929     2.3649 C.3     
   3 C3             0.9706     1.2946     0.8592 C.3     
   4 N4             2.3695     1.6815     0.6283 N.am    
   5 C5             2.9076     2.8502     1.3385 C.3     
   6 C6             2.6969     2.6485     2.8443 C.3     
   7 C7             0.5209     2.9694     3.9187 C.2     
   8 O8            -0.6358     2.6429     4.0976 O.2     
   9 O9             1.0263     4.0384     4.5633 O.3     
  10 C10            3.1451     0.9768    -0.2191 C.2     
  11 C11            4.5066     1.4473    -0.5374 C.ar    
  12 C12            5.5274     0.5242    -0.7822 C.ar    
  13 C13            6.7963     0.9663    -1.0787 C.ar    
  14 C14            7.0640     2.3313    -1.1351 C.ar    
  15 C15            6.0497     3.2532    -0.8914 C.ar    
  16 C16            4.7772     2.8174    -0.6004 C.ar    
  17 O17            2.7228    -0.0469    -0.7214 O.2     
  18 S18            8.5654     4.0023    -2.5251 S.o2    
  19 O19            7.7066     5.0585    -2.1173 O.2     
  20 O20            9.9695     4.1577    -2.6787 O.2     
  21 N21            8.3473     2.7749    -1.4351 N.am    
  22 N22            9.6633     1.7729    -4.2127 N.ar    
  23 C23           10.2605     0.7806    -4.8266 C.ar    
  24 C24            9.8113     0.3020    -6.0557 C.ar    
  25 C25            8.7210     0.8697    -6.6510 C.ar    
  26 C26            8.0819     1.9349    -5.9886 C.ar    
  27 C27            6.9564     2.5681    -6.5390 C.ar    
  28 C28            6.3666     3.5954    -5.8674 C.ar    
  29 C29            6.8649     4.0265    -4.6398 C.ar    
  30 C30            7.9547     3.4358    -4.0777 C.ar    
  31 C31            8.5914     2.3725    -4.7407 C.ar    
  32 C32            0.1645     4.7657     5.3223 C.ar    
  33 C33           -0.3738     4.2195     6.4780 C.ar    
  34 C34           -1.2503     4.9621     7.2489 C.ar    
  35 C35           -1.5895     6.2495     6.8662 C.ar    
  36 C36           -1.0536     6.7937     5.7144 C.ar    
  37 C37           -0.1733     6.0571     4.9450 C.ar    
  38 F38           -1.7759     4.4315     8.3747 F       
  39 H39            1.2836     0.1940     2.6903 H       
  40 H40           -0.3051     0.9953     2.5755 H       
  41 H41            0.7563     0.3649     0.3320 H       
  42 H42            0.3090     2.0827     0.4996 H       
  43 H43            3.9726     2.9478     1.1280 H       
  44 H44            2.3839     3.7491     1.0131 H       
  45 H45            2.9111     3.5782     3.3714 H       
  46 H46            3.3585     1.8604     3.2038 H       
  47 H47            5.3204    -0.5349    -0.7382 H       
  48 H48            7.5855     0.2536    -1.2676 H       
  49 H49            6.2606     4.3115    -0.9352 H       
  50 H50            3.9895     3.5330    -0.4165 H       
  51 H51            9.1147     2.3653    -1.0059 H       
  52 H52           11.1239     0.3219    -4.3677 H       
  53 H53           10.3250    -0.5169    -6.5374 H       
  54 H54            8.3595     0.5116    -7.6036 H       
  55 H55            6.5608     2.2427    -7.4898 H       
  56 H56            5.5008     4.0820    -6.2915 H       
  57 H57            6.3799     4.8438    -4.1270 H       
  58 H58           -0.1093     3.2156     6.7757 H       
  59 H59           -2.2738     6.8285     7.4685 H       
  60 H60           -1.3196     7.7975     5.4177 H       
  61 H61            0.2482     6.4852     4.0475 H       
@<TRIPOS>BOND
   1    1    2 1
   2    1    6 1
   3    1    7 am
   4    2    3 1
   5    2   39 1
   6    2   40 1
   7    3    4 1
   8    3   41 1
   9    3   42 1
  10    4    5 1
  11    4   10 am
  12    5    6 1
  13    5   43 1
  14    5   44 1
  15    6   45 1
  16    6   46 1
  17    7    8 2
  18    7    9 1
  19    9   32 1
  20   10   11 1
  21   10   17 2
  22   11   12 ar
  23   11   16 ar
  24   12   13 ar
  25   12   47 1
  26   13   14 ar
  27   13   48 1
  28   14   15 ar
  29   14   21 1
  30   15   16 ar
  31   15   49 1
  32   16   50 1
  33   18   19 2
  34   18   20 2
  35   18   21 am
  36   18   30 1
  37   21   51 1
  38   22   23 ar
  39   22   31 ar
  40   23   24 ar
  41   23   52 1
  42   24   25 ar
  43   24   53 1
  44   25   26 ar
  45   25   54 1
  46   26   27 ar
  47   26   31 ar
  48   27   28 ar
  49   27   55 1
  50   28   29 ar
  51   28   56 1
  52   29   30 ar
  53   29   57 1
  54   30   31 ar
  55   32   33 ar
  56   32   37 ar
  57   33   34 ar
  58   33   58 1
  59   34   35 ar
  60   34   38 1
  61   35   36 ar
  62   35   59 1
  63   36   37 ar
  64   36   60 1
  65   37   61 1

#	End of record

