#	Name: ASD03730296
#	Creating user name:	WinNT
#	Creation time:	15. 06. 2019 20:44

#	Modifying user name:	WinNT
#	Modification time:	15. 06. 2019 20:44

#	Program:	/corina/corina34_cracker 3.40 0067  02.08.2006

@<TRIPOS>MOLECULE
ASD03730296
  65   70    0    0    0
SMALL
NO_CHARGES


@<TRIPOS>ATOM
   1 O1             1.3127     2.0319    -1.7629 O.3     
   2 C2             1.2970     0.6008    -1.9206 C.3     
   3 O3             2.6827     0.2629    -2.1175 O.3     
   4 C4             3.3912     1.2416    -1.4812 C.ar    
   5 C5             2.5492     2.3302    -1.2661 C.ar    
   6 C6             4.7076     1.2914    -1.0590 C.ar    
   7 C7             5.2015     2.4264    -0.4231 C.ar    
   8 C8             4.3546     3.5129    -0.2257 C.ar    
   9 C9             3.0393     3.4629    -0.6379 C.ar    
  10 O10            6.4447     2.6712     0.0816 O.3     
  11 C11            5.1766     4.5811     0.4445 C.3     
  12 C12            6.6181     4.0916     0.2482 C.3     
  13 N13            4.5420     6.7429     0.8274 N.am    
  14 C14            4.9582     5.9348    -0.1681 C.2     
  15 C15            4.8328     4.7416     1.8953 C.ar    
  16 C16            4.8290     3.8773     2.9816 C.ar    
  17 C17            4.4464     4.3453     4.2385 C.ar    
  18 C18            4.0739     5.6660     4.3926 C.ar    
  19 C19            4.0783     6.5247     3.3123 C.ar    
  20 C20            4.4587     6.0717     2.0502 C.ar    
  21 O21            5.1237     6.2408    -1.3300 O.2     
  22 C22            4.2156     8.1598     0.6482 C.3     
  23 C23            2.7326     8.3013     0.2996 C.3     
  24 C24            2.3917     9.7811     0.1124 C.3     
  25 C25            0.9087     9.9227    -0.2362 C.3     
  26 C26            0.5678    11.4024    -0.4233 C.3     
  27 C27            5.2302     2.4600     2.8060 C.ar    
  28 C28            6.5820     2.1198     2.7198 C.ar    
  29 C29            6.9487     0.7892     2.5553 C.ar    
  30 C30            5.9739    -0.1931     2.4775 C.ar    
  31 C31            4.6353     0.1451     2.5630 C.ar    
  32 C32            4.2599     1.4624     2.7322 C.ar    
  33 O33            8.2633     0.4514     2.4702 O.3     
  34 C34            8.5674    -0.9346     2.3015 C.3     
  35 O35            7.5352     3.0860     2.7961 O.3     
  36 C36            8.0345     3.4035     4.0968 C.3     
  37 H37            0.9098     0.1207    -1.0219 H       
  38 H38            0.7063     0.3179    -2.7919 H       
  39 H39            5.3561     0.4436    -1.2235 H       
  40 H40            2.3899     4.3094    -0.4704 H       
  41 H41            7.2234     4.3071     1.1287 H       
  42 H42            7.0594     4.5351    -0.6443 H       
  43 H43            4.4411     3.6777     5.0874 H       
  44 H44            3.7768     6.0294     5.3653 H       
  45 H45            3.7847     7.5555     3.4457 H       
  46 H46            4.4251     8.7004     1.5712 H       
  47 H47            4.8198     8.5725    -0.1597 H       
  48 H48            2.5232     7.7607    -0.6235 H       
  49 H49            2.1284     7.8886     1.1075 H       
  50 H50            2.6012    10.3217     1.0355 H       
  51 H51            2.9959    10.1938    -0.6955 H       
  52 H52            0.6992     9.3820    -1.1592 H       
  53 H53            0.3045     9.5100     0.5717 H       
  54 H54           -0.4887    11.5033    -0.6717 H       
  55 H55            0.7772    11.9430     0.4997 H       
  56 H56            1.1720    11.8151    -1.2312 H       
  57 H57            6.2606    -1.2265     2.3492 H       
  58 H58            3.8809    -0.6253     2.5013 H       
  59 H59            3.2136     1.7207     2.8032 H       
  60 H60            8.1116    -1.2971     1.3801 H       
  61 H61            9.6482    -1.0657     2.2483 H       
  62 H62            8.1743    -1.4984     3.1475 H       
  63 H63            8.4824     2.5146     4.5410 H       
  64 H64            8.7872     4.1877     4.0156 H       
  65 H65            7.2148     3.7504     4.7260 H       
@<TRIPOS>BOND
   1    1    2 1
   2    1    5 1
   3    2    3 1
   4    2   37 1
   5    2   38 1
   6    3    4 1
   7    4    5 ar
   8    4    6 ar
   9    5    9 ar
  10    6    7 ar
  11    6   39 1
  12    7    8 ar
  13    7   10 1
  14    8    9 ar
  15    8   11 1
  16    9   40 1
  17   10   12 1
  18   11   12 1
  19   11   14 1
  20   11   15 1
  21   12   41 1
  22   12   42 1
  23   13   14 am
  24   13   20 1
  25   13   22 1
  26   14   21 2
  27   15   16 ar
  28   15   20 ar
  29   16   17 ar
  30   16   27 1
  31   17   18 ar
  32   17   43 1
  33   18   19 ar
  34   18   44 1
  35   19   20 ar
  36   19   45 1
  37   22   23 1
  38   22   46 1
  39   22   47 1
  40   23   24 1
  41   23   48 1
  42   23   49 1
  43   24   25 1
  44   24   50 1
  45   24   51 1
  46   25   26 1
  47   25   52 1
  48   25   53 1
  49   26   54 1
  50   26   55 1
  51   26   56 1
  52   27   28 ar
  53   27   32 ar
  54   28   29 ar
  55   28   35 1
  56   29   30 ar
  57   29   33 1
  58   30   31 ar
  59   30   57 1
  60   31   32 ar
  61   31   58 1
  62   32   59 1
  63   33   34 1
  64   34   60 1
  65   34   61 1
  66   34   62 1
  67   35   36 1
  68   36   63 1
  69   36   64 1
  70   36   65 1

#	End of record

