#	Name: ASD00061043
#	Creating user name:	WinNT
#	Creation time:	15. 06. 2019 18:29

#	Modifying user name:	WinNT
#	Modification time:	15. 06. 2019 18:29

#	Program:	/corina/corina34_cracker 3.40 0067  02.08.2006

@<TRIPOS>MOLECULE
ASD00061043
  51   54    0    0    0
SMALL
NO_CHARGES


@<TRIPOS>ATOM
   1 C1             1.6369     1.1767    -0.2949 C.ar    
   2 C2             1.0986    -0.1884    -0.1923 C.2     
   3 C3             2.0374    -1.3639    -0.1034 C.3     
   4 O4            -0.1006    -0.3679    -0.1792 O.2     
   5 C5             1.2328    -2.6418     0.1423 C.3     
   6 C6             2.1554    -3.8325     0.0991 C.ar    
   7 C7             1.9492    -4.8332    -0.8320 C.ar    
   8 C8             2.7956    -5.9255    -0.8717 C.ar    
   9 C9             3.8484    -6.0168     0.0194 C.ar    
  10 C10            4.0551    -5.0157     0.9500 C.ar    
  11 C11            3.2114    -3.9213     0.9868 C.ar    
  12 C12            3.0270     1.3805    -0.3098 C.ar    
  13 C13            3.5429     2.6372    -0.4042 C.ar    
  14 C14            2.6888     3.7410    -0.4876 C.ar    
  15 C15            1.2867     3.5533    -0.4741 C.ar    
  16 C16            0.7666     2.2594    -0.3826 C.ar    
  17 C17            3.2149     5.1050    -0.5896 C.ar    
  18 C18            2.3118     6.1881    -0.6712 C.ar    
  19 C19            0.9161     5.9592    -0.6542 C.ar    
  20 C20            0.4066     4.7138    -0.5615 C.ar    
  21 C21            4.5913     5.3479    -0.6066 C.ar    
  22 C22            5.0523     6.6294    -0.7020 C.ar    
  23 C23            4.1669     7.6980    -0.7821 C.ar    
  24 C24            2.8188     7.4929    -0.7687 C.ar    
  25 C25            0.5620    -2.5660     1.5154 C.3     
  26 C26           -0.1426    -3.8668     1.8027 C.2     
  27 O27            0.1295    -4.4941     2.7989 O.2     
  28 O28           -1.0725    -4.3286     0.9519 O.3     
  29 C29            1.6072    -2.3168     2.5720 C.2     
  30 O30            2.0476    -3.2397     3.2156 O.2     
  31 O31            2.0489    -1.0696     2.7981 O.3     
  32 H32            2.5918    -1.4575    -1.0372 H       
  33 H33            2.7353    -1.2101     0.7197 H       
  34 H34            0.4700    -2.7449    -0.6295 H       
  35 H35            1.1267    -4.7619    -1.5283 H       
  36 H36            2.6340    -6.7077    -1.5987 H       
  37 H37            4.5092    -6.8705    -0.0111 H       
  38 H38            4.8775    -5.0872     1.6464 H       
  39 H39            3.3729    -3.1391     1.7138 H       
  40 H40            3.6927     0.5325    -0.2453 H       
  41 H41            4.6132     2.7814    -0.4143 H       
  42 H42           -0.3017     2.1015    -0.3712 H       
  43 H43            0.2427     6.8012    -0.7173 H       
  44 H44           -0.6643     4.5741    -0.5512 H       
  45 H45            5.2877     4.5248    -0.5443 H       
  46 H46            6.1161     6.8150    -0.7150 H       
  47 H47            4.5518     8.7043    -0.8566 H       
  48 H48            2.1428     8.3328    -0.8316 H       
  49 H49           -0.1623    -1.7514     1.5215 H       
  50 H50           -1.4433    -5.2019     1.1386 H       
  51 H51            2.7197    -0.9594     3.4859 H       
@<TRIPOS>BOND
   1    1    2 1
   2    1   12 ar
   3    1   16 ar
   4    2    3 1
   5    2    4 2
   6    3    5 1
   7    3   32 1
   8    3   33 1
   9    5    6 1
  10    5   25 1
  11    5   34 1
  12    6    7 ar
  13    6   11 ar
  14    7    8 ar
  15    7   35 1
  16    8    9 ar
  17    8   36 1
  18    9   10 ar
  19    9   37 1
  20   10   11 ar
  21   10   38 1
  22   11   39 1
  23   12   13 ar
  24   12   40 1
  25   13   14 ar
  26   13   41 1
  27   14   15 ar
  28   14   17 ar
  29   15   16 ar
  30   15   20 ar
  31   16   42 1
  32   17   18 ar
  33   17   21 ar
  34   18   19 ar
  35   18   24 ar
  36   19   20 ar
  37   19   43 1
  38   20   44 1
  39   21   22 ar
  40   21   45 1
  41   22   23 ar
  42   22   46 1
  43   23   24 ar
  44   23   47 1
  45   24   48 1
  46   25   26 1
  47   25   29 1
  48   25   49 1
  49   26   27 2
  50   26   28 1
  51   28   50 1
  52   29   30 2
  53   29   31 1
  54   31   51 1

#	End of record

