#	Name: ASD01800017
#	Creating user name:	WinNT
#	Creation time:	15. 06. 2019 19:23

#	Modifying user name:	WinNT
#	Modification time:	15. 06. 2019 19:23

#	Program:	/corina/corina34_cracker 3.40 0067  02.08.2006

@<TRIPOS>MOLECULE
ASD01800017
  40   42    0    0    0
SMALL
NO_CHARGES


@<TRIPOS>ATOM
   1 C1            -0.2511     0.8549     0.3048 C.ar    
   2 C2             0.0029    -0.4887     0.5727 C.ar    
   3 C3             1.2993    -0.9846     0.4577 C.ar    
   4 C4             2.3288    -0.1396     0.0778 C.ar    
   5 C5             2.0673     1.1977    -0.1874 C.ar    
   6 C6             0.7810     1.6903    -0.0734 C.ar    
   7 O7             3.5955    -0.6198    -0.0351 O.3     
   8 C8             3.8760    -1.3536    -1.1291 C.2     
   9 N9             5.0799    -1.9468    -1.2521 N.am    
  10 C10            5.3850    -2.7450    -2.4421 C.3     
  11 C11            6.9058    -2.7876    -2.6725 C.3     
  12 C12            7.3223    -4.2708    -2.5931 C.3     
  13 C13            6.0253    -5.0480    -2.9291 C.3     
  14 C14            4.9304    -4.2039    -2.2306 C.3     
  15 O15            3.0437    -1.4807    -2.0052 O.2     
  16 C16           -1.1046    -1.3886     0.9799 C.ar    
  17 C17           -2.4016    -0.8930     1.0955 C.ar    
  18 C18           -3.4279    -1.7344     1.4746 C.ar    
  19 C19           -3.1707    -3.0674     1.7395 C.ar    
  20 C20           -1.8849    -3.5647     1.6263 C.ar    
  21 C21           -0.8521    -2.7335     1.2424 C.ar    
  22 H22           -1.2560     1.2417     0.3886 H       
  23 H23            1.5014    -2.0251     0.6646 H       
  24 H24            2.8714     1.8551    -0.4836 H       
  25 H25            0.5827     2.7315    -0.2808 H       
  26 H26            5.7443    -1.8453    -0.5527 H       
  27 H27            4.8870    -2.3206    -3.3138 H       
  28 H28            7.1458    -2.3846    -3.6564 H       
  29 H29            7.4169    -2.2144    -1.8990 H       
  30 H30            8.0985    -4.4889    -3.3265 H       
  31 H31            7.6653    -4.5175    -1.5883 H       
  32 H32            5.8612    -5.0784    -4.0062 H       
  33 H33            6.0600    -6.0553    -2.5140 H       
  34 H34            4.8872    -4.4398    -1.1673 H       
  35 H35            3.9611    -4.3732    -2.6996 H       
  36 H36           -2.6035     0.1478     0.8892 H       
  37 H37           -4.4336    -1.3512     1.5649 H       
  38 H38           -3.9766    -3.7222     2.0362 H       
  39 H39           -1.6895    -4.6062     1.8347 H       
  40 H40            0.1514    -3.1229     1.1539 H       
@<TRIPOS>BOND
   1    1    2 ar
   2    1    6 ar
   3    1   22 1
   4    2    3 ar
   5    2   16 1
   6    3    4 ar
   7    3   23 1
   8    4    5 ar
   9    4    7 1
  10    5    6 ar
  11    5   24 1
  12    6   25 1
  13    7    8 1
  14    8    9 am
  15    8   15 2
  16    9   10 1
  17    9   26 1
  18   10   11 1
  19   10   14 1
  20   10   27 1
  21   11   12 1
  22   11   28 1
  23   11   29 1
  24   12   13 1
  25   12   30 1
  26   12   31 1
  27   13   14 1
  28   13   32 1
  29   13   33 1
  30   14   34 1
  31   14   35 1
  32   16   17 ar
  33   16   21 ar
  34   17   18 ar
  35   17   36 1
  36   18   19 ar
  37   18   37 1
  38   19   20 ar
  39   19   38 1
  40   20   21 ar
  41   20   39 1
  42   21   40 1

#	End of record

