#	Name: ASD00843117
#	Creating user name:	WinNT
#	Creation time:	15. 06. 2019 18:46

#	Modifying user name:	WinNT
#	Modification time:	15. 06. 2019 18:46

#	Program:	/corina/corina34_cracker 3.40 0067  02.08.2006

@<TRIPOS>MOLECULE
ASD00843117
  98  103    0    0    0
SMALL
NO_CHARGES


@<TRIPOS>ATOM
   1 F1            -0.1010    -3.1560     4.7185 F       
   2 N2            -0.0052     1.3210     0.0354 N.ar    
   3 C3             0.0088    -0.0013     0.0185 C.ar    
   4 C4             1.2116    -0.6962    -0.0015 C.ar    
   5 C5             2.3993     0.0138    -0.0035 C.ar    
   6 C6             2.3417     1.4008     0.0147 C.ar    
   7 C7             1.1107     2.0254     0.0340 C.ar    
   8 C8             1.2227    -2.2030    -0.0203 C.3     
   9 C9             0.4753    -2.7237    -1.2293 C.2     
  10 N10            2.5990    -2.7049    -0.0126 N.am    
  11 C11            3.4464    -2.3633    -1.0034 C.2     
  12 N12            4.7400    -2.7368    -0.9424 N.am    
  13 O13            3.0439    -1.7183    -1.9522 O.2     
  14 C14            5.2678    -3.4156     0.2489 C.3     
  15 C15            6.4986    -2.6515     0.7470 C.3     
  16 C16            7.5064    -2.5146    -0.3967 C.3     
  17 C17            6.8755    -1.7199    -1.5424 C.3     
  18 C18            5.6476    -2.4785    -2.0686 C.3     
  19 C19            8.7519    -1.7821     0.1064 C.3     
  20 C20            9.3853    -2.5768     1.2517 C.3     
  21 C21           10.6636    -1.8712     1.7099 C.3     
  22 N22           11.5999    -1.7715     0.5830 N.3     
  23 C23           11.0318    -0.9725    -0.5103 C.3     
  24 C24            9.7644    -1.6513    -1.0347 C.3     
  25 C25           12.8917    -1.2243     1.0187 C.3     
  26 O26            0.7564    -2.5211    -2.3917 O.2     
  27 N27           -0.5572    -3.4525    -0.7739 N.am    
  28 C28            0.4488    -2.7530     1.1564 C.ar    
  29 C29           -0.6026    -3.4907     0.6219 C.ar    
  30 C30            0.6176    -2.6397     2.5188 C.ar    
  31 C31           -0.2652    -3.2651     3.3819 C.ar    
  32 C32           -1.3282    -4.0110     2.8624 C.ar    
  33 C33           -1.4932    -4.1219     1.4821 C.ar    
  34 C34           -1.0260    -5.8357    -2.0681 C.ar    
  35 C35            0.1523    -5.9974    -2.7826 C.ar    
  36 C36           -1.7074    -6.9421    -1.5975 C.ar    
  37 C37           -1.2173    -8.2114    -1.8366 C.ar    
  38 C38           -0.0390    -8.3784    -2.5508 C.ar    
  39 C39            0.6461    -7.2703    -3.0243 C.ar    
  40 O40            0.4425    -9.6273    -2.7861 O.3     
  41 O41            0.8217    -4.9091    -3.2456 O.3     
  42 C42            2.0277    -5.1503    -3.9732 C.3     
  43 C43           -0.3155   -10.7228    -2.2690 C.3     
  44 C44           13.9130    -1.3659    -0.1117 C.3     
  45 C45           15.2584    -0.7961     0.3421 C.3     
  46 S46           -1.6503    -4.2182    -1.7544 S.o2    
  47 O47           -2.8319    -4.3867    -0.9832 O.2     
  48 O48           -1.6251    -3.5302    -2.9975 O.2     
  49 O49           -1.1626    -0.6857     0.0211 O.3     
  50 C50           -2.3650     0.0862     0.0425 C.3     
  51 C51           -3.5735    -0.8521     0.0423 C.3     
  52 F52           -3.5485    -1.6444    -1.1105 F       
  53 F53           -3.5265    -1.6734     1.1738 F       
  54 C54           -2.2466    -4.6614     3.7479 C.1     
  55 N55           -2.9751    -5.1774     4.4503 N.1     
  56 H56            3.3495    -0.4993    -0.0185 H       
  57 H57            3.2501     1.9849     0.0140 H       
  58 H58            1.0604     3.1041     0.0479 H       
  59 H59            2.9004    -3.2830     0.7057 H       
  60 H60            4.5064    -3.4299     1.0288 H       
  61 H61            5.5506    -4.4366    -0.0074 H       
  62 H62            6.1984    -1.6606     1.0879 H       
  63 H63            6.9565    -3.1973     1.5719 H       
  64 H64            7.7874    -3.5054    -0.7536 H       
  65 H65            6.5717    -0.7378    -1.1799 H       
  66 H66            7.6015    -1.6027    -2.3468 H       
  67 H67            5.9639    -3.4218    -2.5137 H       
  68 H68            5.1365    -1.8723    -2.8166 H       
  69 H69            8.4724    -0.7904     0.4621 H       
  70 H70            8.6843    -2.6368     2.0843 H       
  71 H71            9.6280    -3.5818     0.9066 H       
  72 H72           10.4183    -0.8713     2.0677 H       
  73 H73           11.1248    -2.4422     2.5157 H       
  74 H74           10.7847     0.0232    -0.1420 H       
  75 H75           11.7603    -0.8907    -1.3169 H       
  76 H76           10.0132    -2.6417    -1.4158 H       
  77 H77            9.3344    -1.0499    -1.8357 H       
  78 H78           12.7733    -0.1707     1.2715 H       
  79 H79           13.2411    -1.7711     1.8946 H       
  80 H80            1.4404    -2.0624     2.9140 H       
  81 H81           -2.3141    -4.6980     1.0813 H       
  82 H82           -2.6245    -6.8142    -1.0415 H       
  83 H83           -1.7512    -9.0744    -1.4671 H       
  84 H84            1.5629    -7.3982    -3.5806 H       
  85 H85            2.4606    -4.1996    -4.2845 H       
  86 H86            2.7360    -5.6810    -3.3369 H       
  87 H87            1.8066    -5.7543    -4.8532 H       
  88 H88           -0.3866   -10.6358    -1.1848 H       
  89 H89           -1.3161   -10.7084    -2.7011 H       
  90 H90            0.1781   -11.6598    -2.5267 H       
  91 H91           14.0313    -2.4196    -0.3646 H       
  92 H92           13.5636    -0.8192    -0.9876 H       
  93 H93           15.1400     0.2576     0.5949 H       
  94 H94           15.6077    -1.3428     1.2179 H       
  95 H95           15.9859    -0.8969    -0.4633 H       
  96 H96           -2.3845     0.7035     0.9407 H       
  97 H97           -2.4017     0.7262    -0.8391 H       
  98 H98           -4.4907    -0.2632     0.0586 H       
@<TRIPOS>BOND
   1    1   31 1
   2    2    3 ar
   3    2    7 ar
   4    3    4 ar
   5    3   49 1
   6    4    5 ar
   7    4    8 1
   8    5    6 ar
   9    5   56 1
  10    6    7 ar
  11    6   57 1
  12    7   58 1
  13    8    9 1
  14    8   10 1
  15    8   28 1
  16    9   26 2
  17    9   27 am
  18   10   11 am
  19   10   59 1
  20   11   12 am
  21   11   13 2
  22   12   14 1
  23   12   18 1
  24   14   15 1
  25   14   60 1
  26   14   61 1
  27   15   16 1
  28   15   62 1
  29   15   63 1
  30   16   17 1
  31   16   19 1
  32   16   64 1
  33   17   18 1
  34   17   65 1
  35   17   66 1
  36   18   67 1
  37   18   68 1
  38   19   20 1
  39   19   24 1
  40   19   69 1
  41   20   21 1
  42   20   70 1
  43   20   71 1
  44   21   22 1
  45   21   72 1
  46   21   73 1
  47   22   23 1
  48   22   25 1
  49   23   24 1
  50   23   74 1
  51   23   75 1
  52   24   76 1
  53   24   77 1
  54   25   44 1
  55   25   78 1
  56   25   79 1
  57   27   46 am
  58   27   29 1
  59   28   29 ar
  60   28   30 ar
  61   29   33 ar
  62   30   31 ar
  63   30   80 1
  64   31   32 ar
  65   32   33 ar
  66   32   54 1
  67   33   81 1
  68   34   35 ar
  69   34   36 ar
  70   34   46 1
  71   35   41 1
  72   35   39 ar
  73   36   37 ar
  74   36   82 1
  75   37   38 ar
  76   37   83 1
  77   38   39 ar
  78   38   40 1
  79   39   84 1
  80   40   43 1
  81   41   42 1
  82   42   85 1
  83   42   86 1
  84   42   87 1
  85   43   88 1
  86   43   89 1
  87   43   90 1
  88   44   45 1
  89   44   91 1
  90   44   92 1
  91   45   93 1
  92   45   94 1
  93   45   95 1
  94   46   47 2
  95   46   48 2
  96   49   50 1
  97   50   51 1
  98   50   96 1
  99   50   97 1
 100   51   52 1
 101   51   53 1
 102   51   98 1
 103   54   55 3

#	End of record

