#	Name: ASD01940558
#	Creating user name:	WinNT
#	Creation time:	15. 06. 2019 20:12

#	Modifying user name:	WinNT
#	Modification time:	15. 06. 2019 20:12

#	Program:	/corina/corina34_cracker 3.40 0067  02.08.2006

@<TRIPOS>MOLECULE
ASD01940558
  42   42    0    0    0
SMALL
NO_CHARGES


@<TRIPOS>ATOM
   1 C1            -0.0180     1.4744     0.0101 C.2     
   2 C2             0.0021    -0.0041     0.0020 C.ar    
   3 C3             1.2182    -0.6872    -0.0133 C.ar    
   4 C4             1.2295    -2.0736    -0.0203 C.ar    
   5 C5             0.0314    -2.7786    -0.0127 C.ar    
   6 C6            -1.1742    -2.1015     0.0020 C.ar    
   7 C7            -1.1956    -0.7205     0.0154 C.ar    
   8 O8             1.0263     2.0964     0.0035 O.2     
   9 N9            -1.1942     2.1324     0.0193 N.am    
  10 C10           -1.2141     3.5972     0.0274 C.3     
  11 C11           -2.6633     4.0875     0.0369 C.3     
  12 O12           -3.2912     3.6942     1.2588 O.3     
  13 C13           -4.6554     4.1050     1.3698 C.3     
  14 C14           -5.2230     3.6324     2.7097 C.3     
  15 O15           -4.5407     4.2949     3.7763 O.3     
  16 C16           -4.9972     3.9227     5.0782 C.3     
  17 C17           -4.2011     4.6892     6.1363 C.3     
  18 O18           -4.4800     6.0861     6.0230 O.3     
  19 C19           -3.7828     6.8968     6.9711 C.3     
  20 Br20          -2.7987    -3.0694     0.0117 Br      
  21 N21            2.4450    -2.7622    -0.0356 N.pl3   
  22 H22            2.1480    -0.1379    -0.0199 H       
  23 H23            0.0423    -3.8585    -0.0185 H       
  24 H24           -2.1390    -0.1951     0.0314 H       
  25 H25           -2.0276     1.6360     0.0206 H       
  26 H26           -0.7010     3.9626     0.9169 H       
  27 H27           -0.7094     3.9723    -0.8630 H       
  28 H28           -2.6798     5.1742    -0.0467 H       
  29 H29           -3.2004     3.6502    -0.8048 H       
  30 H30           -4.7132     5.1921     1.3139 H       
  31 H31           -5.2338     3.6681     0.5558 H       
  32 H32           -6.2863     3.8675     2.7571 H       
  33 H33           -5.0845     2.5553     2.8033 H       
  34 H34           -6.0558     4.1637     5.1748 H       
  35 H35           -4.8540     2.8516     5.2210 H       
  36 H36           -4.4868     4.3410     7.1289 H       
  37 H37           -3.1354     4.5179     5.9840 H       
  38 H38           -4.0598     6.5944     7.9810 H       
  39 H39           -2.7085     6.7713     6.8360 H       
  40 H40           -4.0483     7.9430     6.8193 H       
  41 H41            3.2810    -2.2703    -0.0413 H       
  42 H42            2.4529    -3.7321    -0.0406 H       
@<TRIPOS>BOND
   1    1    2 1
   2    1    8 2
   3    1    9 am
   4    2    3 ar
   5    2    7 ar
   6    3    4 ar
   7    3   22 1
   8    4    5 ar
   9    4   21 1
  10    5    6 ar
  11    5   23 1
  12    6    7 ar
  13    6   20 1
  14    7   24 1
  15    9   10 1
  16    9   25 1
  17   10   11 1
  18   10   26 1
  19   10   27 1
  20   11   12 1
  21   11   28 1
  22   11   29 1
  23   12   13 1
  24   13   14 1
  25   13   30 1
  26   13   31 1
  27   14   15 1
  28   14   32 1
  29   14   33 1
  30   15   16 1
  31   16   17 1
  32   16   34 1
  33   16   35 1
  34   17   18 1
  35   17   36 1
  36   17   37 1
  37   18   19 1
  38   19   38 1
  39   19   39 1
  40   19   40 1
  41   21   41 1
  42   21   42 1

#	End of record

