#	Name: ASD01230632
#	Creating user name:	WinNT
#	Creation time:	15. 06. 2019 19:14

#	Modifying user name:	WinNT
#	Modification time:	15. 06. 2019 19:14

#	Program:	/corina/corina34_cracker 3.40 0067  02.08.2006

@<TRIPOS>MOLECULE
ASD01230632
  39   41    0    0    0
SMALL
NO_CHARGES


@<TRIPOS>ATOM
   1 C1            -0.0169     1.3979     0.0097 C.ar    
   2 C2             0.0021    -0.0041     0.0020 C.ar    
   3 C3             1.2323    -0.6604    -0.0132 C.ar    
   4 C4             2.3881     0.1053    -0.0201 C.ar    
   5 C5             2.2901     1.4830    -0.0118 C.ar    
   6 N6             1.1145     2.0832     0.0026 N.ar    
   7 N7            -1.2311     2.0712     0.0191 N.pl3   
   8 N8            -4.7020    -3.0637    -0.1639 N.pl3   
   9 C9            -4.4128    -3.8966    -1.2102 C.2     
  10 C10           -3.1938    -3.6147    -1.6965 C.2     
  11 C11           -2.6584    -2.5106    -0.8958 C.ar    
  12 C12           -1.4633    -1.7915    -0.9145 C.ar    
  13 C13           -1.2646    -0.7757     0.0104 C.ar    
  14 C14           -2.2570    -0.4789     0.9509 C.ar    
  15 C15           -3.4281    -1.1795     0.9726 C.ar    
  16 C16           -3.6493    -2.2028     0.0550 C.ar    
  17 C17           -5.9487    -3.0809     0.6052 C.3     
  18 C18           -6.9170    -2.0453     0.0301 C.3     
  19 C19           -7.3126    -2.4509    -1.3911 C.3     
  20 C20           -8.1685    -1.9749     0.9074 C.3     
  21 H21            1.2835    -1.7392    -0.0192 H       
  22 H22            3.3571    -0.3715    -0.0316 H       
  23 H23            3.1905     2.0793    -0.0172 H       
  24 H24           -2.0626     1.5717     0.0203 H       
  25 H25           -1.2478     3.0410     0.0245 H       
  26 H26           -5.0681    -4.6672    -1.5885 H       
  27 H27           -2.7010    -4.1084    -2.5210 H       
  28 H28           -0.6992    -2.0235    -1.6416 H       
  29 H29           -2.0946     0.3127     1.6674 H       
  30 H30           -4.1855    -0.9396     1.7042 H       
  31 H31           -6.3989    -4.0718     0.5455 H       
  32 H32           -5.7363    -2.8406     1.6470 H       
  33 H33           -6.4335    -1.0687     0.0079 H       
  34 H34           -7.7962    -3.4276    -1.3689 H       
  35 H35           -8.0025    -1.7132    -1.8008 H       
  36 H36           -6.4210    -2.5011    -2.0161 H       
  37 H37           -7.8867    -1.6859     1.9199 H       
  38 H38           -8.8584    -1.2371     0.4977 H       
  39 H39           -8.6521    -2.9515     0.9297 H       
@<TRIPOS>BOND
   1    1    2 ar
   2    1    6 ar
   3    1    7 1
   4    2    3 ar
   5    2   13 1
   6    3    4 ar
   7    3   21 1
   8    4    5 ar
   9    4   22 1
  10    5    6 ar
  11    5   23 1
  12    7   24 1
  13    7   25 1
  14    8    9 1
  15    8   16 1
  16    8   17 1
  17    9   10 2
  18    9   26 1
  19   10   11 1
  20   10   27 1
  21   11   12 ar
  22   11   16 ar
  23   12   13 ar
  24   12   28 1
  25   13   14 ar
  26   14   15 ar
  27   14   29 1
  28   15   16 ar
  29   15   30 1
  30   17   18 1
  31   17   31 1
  32   17   32 1
  33   18   19 1
  34   18   20 1
  35   18   33 1
  36   19   34 1
  37   19   35 1
  38   19   36 1
  39   20   37 1
  40   20   38 1
  41   20   39 1

#	End of record

