#	Name: ASD01881568
#	Creating user name:	WinNT
#	Creation time:	15. 06. 2019 19:42

#	Modifying user name:	WinNT
#	Modification time:	15. 06. 2019 19:42

#	Program:	/corina/corina34_cracker 3.40 0067  02.08.2006

@<TRIPOS>MOLECULE
ASD01881568
  27   28    0    0    0
SMALL
NO_CHARGES


@<TRIPOS>ATOM
   1 N1            -0.0169     1.3985     0.0097 N.pl3   
   2 N2             0.0021    -0.0041     0.0020 N.2     
   3 N3             1.2207    -0.4155    -0.0118 N.2     
   4 C4             2.0693     0.6321    -0.0143 C.ar    
   5 C5             1.2974     1.8066    -0.0006 C.ar    
   6 C6             3.4676     0.7294    -0.0265 C.ar    
   7 C7             4.0678     1.9708    -0.0249 C.ar    
   8 C8             3.2942     3.1302    -0.0112 C.ar    
   9 C9             1.9195     3.0501     0.0005 C.ar    
  10 O10            5.4245     2.0647    -0.0362 O.3     
  11 C11           -1.2023     2.2593     0.0203 C.3     
  12 C12           -1.6075     2.5516     1.4664 C.3     
  13 C13           -2.8455     3.4506     1.4775 C.3     
  14 C14           -3.2506     3.7429     2.9236 C.3     
  15 F15           -2.1986     4.3899     3.5809 F       
  16 F16           -4.3826     4.5650     2.9337 F       
  17 F17           -3.5410     2.5413     3.5785 F       
  18 Br18           4.1373     4.8228    -0.0086 Br      
  19 Br19           4.5273    -0.8367    -0.0444 Br      
  20 H20            1.3254     3.9520     0.0107 H       
  21 H21            5.8091     2.0967    -0.9229 H       
  22 H22           -0.9761     3.1955    -0.4900 H       
  23 H23           -2.0219     1.7553    -0.4918 H       
  24 H24           -1.8338     1.6154     1.9767 H       
  25 H25           -0.7879     3.0557     1.9786 H       
  26 H26           -2.6192     4.3868     0.9672 H       
  27 H27           -3.6651     2.9466     0.9653 H       
@<TRIPOS>BOND
   1    1    2 1
   2    1    5 1
   3    1   11 1
   4    2    3 2
   5    3    4 1
   6    4    5 ar
   7    4    6 ar
   8    5    9 ar
   9    6    7 ar
  10    6   19 1
  11    7    8 ar
  12    7   10 1
  13    8    9 ar
  14    8   18 1
  15    9   20 1
  16   10   21 1
  17   11   12 1
  18   11   22 1
  19   11   23 1
  20   12   13 1
  21   12   24 1
  22   12   25 1
  23   13   14 1
  24   13   26 1
  25   13   27 1
  26   14   15 1
  27   14   16 1
  28   14   17 1

#	End of record

