#	Name: ASD03092487
#	Creating user name:	WinNT
#	Creation time:	15. 06. 2019 20:32

#	Modifying user name:	WinNT
#	Modification time:	15. 06. 2019 20:32

#	Program:	/corina/corina34_cracker 3.40 0067  02.08.2006

@<TRIPOS>MOLECULE
ASD03092487
  59   62    0    0    0
SMALL
NO_CHARGES


@<TRIPOS>ATOM
   1 C1            -0.1268     1.4451     0.0218 C.2     
   2 C2            -0.1636    -0.0317     0.0285 C.ar    
   3 C3             1.0114    -0.7629    -0.1602 C.ar    
   4 C4             0.9715    -2.1404    -0.1526 C.ar    
   5 C5            -0.2325    -2.8006     0.0415 C.ar    
   6 C6            -1.4017    -2.0798     0.2292 C.ar    
   7 C7            -1.3722    -0.7015     0.2292 C.ar    
   8 O8             0.9388     2.0262    -0.0459 O.2     
   9 N9            -1.2749     2.1481     0.0852 N.am    
  10 C10            2.3203    -0.0468    -0.3722 C.3     
  11 F11           -0.2663    -4.1512     0.0471 F       
  12 C12           -1.2384     3.6126     0.0786 C.3     
  13 S13           -4.9301     5.0778    -0.3940 S.3     
  14 C14           -4.4916     4.7856     1.2322 C.2     
  15 N15           -3.2832     4.3126     1.2952 N.2     
  16 C16           -2.6440     4.1505     0.1571 C.2     
  17 C17           -3.3531     4.5073    -0.9342 C.2     
  18 N18           -5.3066     5.0197     2.3248 N.3     
  19 C19           -6.6094     5.5559     1.9049 C.3     
  20 C20           -7.4989     5.7436     3.1368 C.3     
  21 O21           -6.8364     6.6002     4.0709 O.3     
  22 C22           -5.5645     6.1081     4.5016 C.3     
  23 C23           -4.6555     5.9241     3.2836 C.3     
  24 C24           -8.8270     6.3763     2.7164 C.3     
  25 F25           -9.4722     5.5401     1.7989 F       
  26 F26           -9.6392     6.5475     3.8425 F       
  27 F27           -8.5841     7.6199     2.1233 F       
  28 C28           -2.5932     5.4084    -4.4999 C.ar    
  29 C29           -3.0409     5.5220    -3.2016 C.ar    
  30 C30           -2.8896     4.4325    -2.3334 C.ar    
  31 C31           -2.2855     3.2701    -2.8309 C.ar    
  32 C32           -1.8673     3.2443    -4.1437 C.ar    
  33 N33           -2.0293     4.2940    -4.9278 N.ar    
  34 C34           -1.2157     2.0009    -4.6917 C.3     
  35 C35           -2.7551     6.5701    -5.4461 C.3     
  36 H36            1.8794    -2.7068    -0.2984 H       
  37 H37           -2.3367    -2.5989     0.3800 H       
  38 H38           -2.2829    -0.1408     0.3800 H       
  39 H39           -2.1254     1.6843     0.1351 H       
  40 H40            2.7401     0.2363     0.5930 H       
  41 H41            3.0155    -0.7066    -0.8914 H       
  42 H42            2.1521     0.8479    -0.9717 H       
  43 H43           -0.6658     3.9657     0.9362 H       
  44 H44           -0.7673     3.9602    -0.8408 H       
  45 H45           -6.4654     6.5165     1.4103 H       
  46 H46           -7.0850     4.8585     1.2154 H       
  47 H47           -7.6870     4.7754     3.6008 H       
  48 H48           -5.1117     6.8224     5.1892 H       
  49 H49           -5.6964     5.1505     5.0053 H       
  50 H50           -3.7047     5.4954     3.6005 H       
  51 H51           -4.4801     6.8905     2.8110 H       
  52 H52           -3.5009     6.4369    -2.8583 H       
  53 H53           -2.1494     2.4077    -2.1951 H       
  54 H54           -1.9790     1.3449    -5.1101 H       
  55 H55           -0.5060     2.2764    -5.4719 H       
  56 H56           -0.6906     1.4822    -3.8896 H       
  57 H57           -1.8751     7.2107    -5.3889 H       
  58 H58           -2.8672     6.1967    -6.4640 H       
  59 H59           -3.6402     7.1431    -5.1698 H       
@<TRIPOS>BOND
   1    1    2 1
   2    1    8 2
   3    1    9 am
   4    2    3 ar
   5    2    7 ar
   6    3    4 ar
   7    3   10 1
   8    4    5 ar
   9    4   36 1
  10    5    6 ar
  11    5   11 1
  12    6    7 ar
  13    6   37 1
  14    7   38 1
  15    9   12 1
  16    9   39 1
  17   10   40 1
  18   10   41 1
  19   10   42 1
  20   12   16 1
  21   12   43 1
  22   12   44 1
  23   13   14 1
  24   13   17 1
  25   14   15 2
  26   14   18 1
  27   15   16 1
  28   16   17 2
  29   17   30 1
  30   18   19 1
  31   18   23 1
  32   19   20 1
  33   19   45 1
  34   19   46 1
  35   20   21 1
  36   20   24 1
  37   20   47 1
  38   21   22 1
  39   22   23 1
  40   22   48 1
  41   22   49 1
  42   23   50 1
  43   23   51 1
  44   24   25 1
  45   24   26 1
  46   24   27 1
  47   28   29 ar
  48   28   33 ar
  49   28   35 1
  50   29   30 ar
  51   29   52 1
  52   30   31 ar
  53   31   32 ar
  54   31   53 1
  55   32   33 ar
  56   32   34 1
  57   34   54 1
  58   34   55 1
  59   34   56 1
  60   35   57 1
  61   35   58 1
  62   35   59 1

#	End of record

