#	Name: ASD05143282
#	Creating user name:	WinNT
#	Creation time:	15. 06. 2019 20:57

#	Modifying user name:	WinNT
#	Modification time:	15. 06. 2019 20:57

#	Program:	/corina/corina34_cracker 3.40 0067  02.08.2006

@<TRIPOS>MOLECULE
ASD05143282
  45   47    0    0    0
SMALL
NO_CHARGES


@<TRIPOS>ATOM
   1 C1             0.3811     1.2245     0.2692 C.2     
   2 N2             0.3736    -0.0407    -0.1007 N.2     
   3 S3            -1.2643    -0.4823    -0.1975 S.3     
   4 C4            -1.8575     1.0665     0.2673 C.2     
   5 N5            -0.7874     1.8035     0.4670 N.2     
   6 N6            -3.1785     1.4514     0.4060 N.pl3   
   7 C7            -3.4882     2.7246     0.8942 C.ar    
   8 C8            -4.8064     3.0580     1.1845 C.ar    
   9 C9            -5.1083     4.3169     1.6672 C.ar    
  10 C10           -4.1009     5.2446     1.8611 C.ar    
  11 C11           -2.7892     4.9158     1.5733 C.ar    
  12 C12           -2.4793     3.6570     1.0958 C.ar    
  13 C13            1.4624    -0.8357    -0.3555 C.ar    
  14 C14            2.3915    -0.4617    -1.3260 C.ar    
  15 C15            1.6494    -2.0241     0.3616 C.ar    
  16 C16            2.7508    -2.8196     0.0975 C.ar    
  17 C17            3.6632    -2.4414    -0.8710 C.ar    
  18 C18            3.4849    -1.2657    -1.5780 C.ar    
  19 C19            1.6503     1.9641     0.4610 C.ar    
  20 C20            1.7130     3.3300     0.1863 C.ar    
  21 C21            2.7856     1.2984     0.9223 C.ar    
  22 C22            3.9649     1.9927     1.0989 C.ar    
  23 C23            4.0224     3.3464     0.8193 C.ar    
  24 C24            2.8980     4.0134     0.3668 C.ar    
  25 O25            0.7530    -2.3945     1.3136 O.3     
  26 C26            1.0090    -3.6190     2.0043 C.3     
  27 Cl27          -6.0713     1.8943     0.9402 Cl      
  28 H28           -3.8902     0.8382     0.1646 H       
  29 H29           -6.1320     4.5769     1.8930 H       
  30 H30           -4.3395     6.2282     2.2379 H       
  31 H31           -2.0052     5.6428     1.7257 H       
  32 H32           -1.4543     3.4013     0.8713 H       
  33 H33            2.2556     0.4554    -1.8799 H       
  34 H34            2.8983    -3.7367     0.6485 H       
  35 H35            4.5213    -3.0652    -1.0735 H       
  36 H36            4.2020    -0.9777    -2.3325 H       
  37 H37            0.8359     3.8516    -0.1673 H       
  38 H38            2.7418     0.2418     1.1412 H       
  39 H39            4.8447     1.4784     1.4564 H       
  40 H40            4.9476     3.8857     0.9594 H       
  41 H41            2.9490     5.0702     0.1502 H       
  42 H42            1.9693    -3.5537     2.5158 H       
  43 H43            0.2196    -3.7960     2.7348 H       
  44 H44            1.0334    -4.4413     1.2892 H       
  45 Br45           9.9476    11.2282     7.7348 Br      
@<TRIPOS>BOND
   1    1    2 2
   2    1   19 1
   3    1    5 1
   4    2    3 1
   5    2   13 1
   6    3    4 1
   7    4    5 2
   8    4    6 1
   9    6    7 1
  10    6   28 1
  11    7    8 ar
  12    7   12 ar
  13    8    9 ar
  14    8   27 1
  15    9   10 ar
  16    9   29 1
  17   10   11 ar
  18   10   30 1
  19   11   12 ar
  20   11   31 1
  21   12   32 1
  22   13   14 ar
  23   13   15 ar
  24   14   18 ar
  25   14   33 1
  26   15   16 ar
  27   15   25 1
  28   16   17 ar
  29   16   34 1
  30   17   18 ar
  31   17   35 1
  32   18   36 1
  33   19   20 ar
  34   19   21 ar
  35   20   24 ar
  36   20   37 1
  37   21   22 ar
  38   21   38 1
  39   22   23 ar
  40   22   39 1
  41   23   24 ar
  42   23   40 1
  43   24   41 1
  44   25   26 1
  45   26   42 1
  46   26   43 1
  47   26   44 1

#	End of record

