#	Name: ASD01811567
#	Creating user name:	WinNT
#	Creation time:	15. 06. 2019 19:27

#	Modifying user name:	WinNT
#	Modification time:	15. 06. 2019 19:27

#	Program:	/corina/corina34_cracker 3.40 0067  02.08.2006

@<TRIPOS>MOLECULE
ASD01811567
  77   81    0    0    0
SMALL
NO_CHARGES


@<TRIPOS>ATOM
   1 C1            -0.8358     1.5267    -1.2930 C.3     
   2 C2            -0.6151     0.0676    -0.9799 C.2     
   3 C3             0.5845    -0.5528    -1.0571 C.2     
   4 C4             1.8697     0.1282    -1.4589 C.3     
   5 C5             1.5314     1.4407    -2.1762 C.3     
   6 N6             0.4933     2.1530    -1.4162 N.am    
   7 C7            -0.8544    -2.0376    -0.4290 C.2     
   8 N8            -1.5286    -0.8586    -0.5815 N.pl3   
   9 N9             0.4129    -1.8321    -0.7202 N.2     
  10 C10            0.7498     3.3479    -0.8478 C.2     
  11 O11            1.8508     3.8498    -0.9592 O.2     
  12 O12           -0.2139     3.9853    -0.1567 O.3     
  13 C13           -1.4477    -3.3256    -0.0079 C.ar    
  14 C14           -0.6769    -4.4900    -0.0252 C.ar    
  15 C15           -1.2290    -5.6931     0.3675 C.ar    
  16 C16           -2.5454    -5.7537     0.7801 C.ar    
  17 C17           -3.3273    -4.5969     0.8022 C.ar    
  18 C18           -2.7744    -3.3786     0.4121 C.ar    
  19 C19           -3.1396    -7.0712     1.2070 C.3     
  20 C20            0.7606    -4.4334    -0.4740 C.3     
  21 C21           -4.7370    -4.6636     1.2434 C.2     
  22 O22           -5.0243    -5.2377     2.2755 O.2     
  23 N23           -5.7034    -4.0878     0.5010 N.am    
  24 C24           -7.0893    -4.0364     0.9860 C.3     
  25 C25           -8.0084    -4.6354    -0.0833 C.3     
  26 C26           -7.7799    -3.9099    -1.4112 C.3     
  27 C27           -6.3289    -4.1042    -1.8575 C.3     
  28 C28           -5.3898    -3.4942    -0.8059 C.3     
  29 C29           -8.7067    -4.4736    -2.4573 C.ar    
  30 C30           -9.6253    -3.6477    -3.0805 C.ar    
  31 C31          -10.4767    -4.1571    -4.0390 C.ar    
  32 C32          -10.4096    -5.5095    -4.3800 C.ar    
  33 C33           -9.4798    -6.3371    -3.7474 C.ar    
  34 C34           -8.6312    -5.8135    -2.7941 C.ar    
  35 C35          -11.2906    -6.0452    -5.3737 C.1     
  36 N36          -11.9895    -6.4703    -6.1619 N.1     
  37 C37            0.1333     5.2681     0.4283 C.3     
  38 C38            0.5540     6.2365    -0.6791 C.3     
  39 C39           -1.0793     5.8359     1.1687 C.3     
  40 C40            1.2909     5.0838     1.4115 C.3     
  41 H41           -1.3813     1.6264    -2.2314 H       
  42 H42           -1.3951     1.9991    -0.4855 H       
  43 H43            2.4639     0.3404    -0.5700 H       
  44 H44            2.4323    -0.5205    -2.1303 H       
  45 H45            2.4253     2.0610    -2.2413 H       
  46 H46            1.1641     1.2233    -3.1792 H       
  47 H47           -2.4758    -0.7106    -0.4338 H       
  48 H48           -0.6287    -6.5907     0.3515 H       
  49 H49           -3.3735    -2.4802     0.4315 H       
  50 H50           -2.9280    -7.2401     2.2629 H       
  51 H51           -4.2183    -7.0507     1.0514 H       
  52 H52           -2.7024    -7.8756     0.6156 H       
  53 H53            1.3886    -4.1145     0.3578 H       
  54 H54            1.0758    -5.4216    -0.8092 H       
  55 H55            0.8571    -3.7233    -1.2953 H       
  56 H56           -7.1758    -4.6131     1.9069 H       
  57 H57           -7.3728    -3.0007     1.1730 H       
  58 H58           -7.7835    -5.6950    -0.2042 H       
  59 H59           -9.0479    -4.5162     0.2223 H       
  60 H60           -7.9811    -2.8463    -1.2833 H       
  61 H61           -6.1198    -5.1688    -1.9618 H       
  62 H62           -6.1731    -3.6069    -2.8149 H       
  63 H63           -5.5375    -2.4152    -0.7620 H       
  64 H64           -4.3545    -3.7130    -1.0677 H       
  65 H65           -9.6761    -2.6019    -2.8158 H       
  66 H66          -11.1937    -3.5115    -4.5242 H       
  67 H67           -9.4226    -7.3841    -4.0064 H       
  68 H68           -7.9088    -6.4516    -2.3070 H       
  69 H69           -0.2708     6.3678    -1.3796 H       
  70 H70            0.8145     7.1995    -0.2400 H       
  71 H71            1.4178     5.8320    -1.2066 H       
  72 H72           -1.3790     5.1460     1.9576 H       
  73 H73           -0.8187     6.7989     1.6079 H       
  74 H74           -1.9040     5.9672     0.4683 H       
  75 H75            2.1548     4.6793     0.8840 H       
  76 H76            1.5515     6.0468     1.8506 H       
  77 H77            0.9912     4.3939     2.2004 H       
@<TRIPOS>BOND
   1    1    2 1
   2    1    6 1
   3    1   41 1
   4    1   42 1
   5    2    3 2
   6    2    8 1
   7    3    4 1
   8    3    9 1
   9    4    5 1
  10    4   43 1
  11    4   44 1
  12    5    6 1
  13    5   45 1
  14    5   46 1
  15    6   10 am
  16    7    8 1
  17    7    9 2
  18    7   13 1
  19    8   47 1
  20   10   11 2
  21   10   12 1
  22   12   37 1
  23   13   14 ar
  24   13   18 ar
  25   14   15 ar
  26   14   20 1
  27   15   16 ar
  28   15   48 1
  29   16   17 ar
  30   16   19 1
  31   17   18 ar
  32   17   21 1
  33   18   49 1
  34   19   50 1
  35   19   51 1
  36   19   52 1
  37   20   53 1
  38   20   54 1
  39   20   55 1
  40   21   22 2
  41   21   23 am
  42   23   24 1
  43   23   28 1
  44   24   25 1
  45   24   56 1
  46   24   57 1
  47   25   26 1
  48   25   58 1
  49   25   59 1
  50   26   27 1
  51   26   29 1
  52   26   60 1
  53   27   28 1
  54   27   61 1
  55   27   62 1
  56   28   63 1
  57   28   64 1
  58   29   30 ar
  59   29   34 ar
  60   30   31 ar
  61   30   65 1
  62   31   32 ar
  63   31   66 1
  64   32   33 ar
  65   32   35 1
  66   33   34 ar
  67   33   67 1
  68   34   68 1
  69   35   36 3
  70   37   38 1
  71   37   40 1
  72   37   39 1
  73   38   69 1
  74   38   70 1
  75   38   71 1
  76   39   72 1
  77   39   73 1
  78   39   74 1
  79   40   75 1
  80   40   76 1
  81   40   77 1

#	End of record

