#	Name: ASD01911135
#	Creating user name:	WinNT
#	Creation time:	15. 06. 2019 19:57

#	Modifying user name:	WinNT
#	Modification time:	15. 06. 2019 19:57

#	Program:	/corina/corina34_cracker 3.40 0067  02.08.2006

@<TRIPOS>MOLECULE
ASD01911135
  44   47    0    0    0
SMALL
NO_CHARGES


@<TRIPOS>ATOM
   1 C1             0.0970     1.0219     0.1630 C.2     
   2 O2             1.1215     1.6743     0.1989 O.2     
   3 C3             1.1793    -2.4603    -0.7614 C.ar    
   4 C4             1.1552    -1.0805    -0.6965 C.ar    
   5 C5             0.1623    -0.4548     0.0634 C.ar    
   6 C6            -0.7670    -1.2615     0.7272 C.ar    
   7 C7            -0.6688    -2.6343     0.6073 C.ar    
   8 N8             0.2835    -3.1838    -0.1198 N.ar    
   9 N9            -1.0987     1.6413     0.2193 N.am    
  10 C10           -2.3438     0.8832     0.0355 C.3     
  11 C11           -3.1686     1.5503    -1.0697 C.3     
  12 C12           -3.3766     3.0268    -0.7249 C.3     
  13 C13           -2.0196     3.7296    -0.6439 C.3     
  14 C14           -1.1820     3.0863     0.4718 C.3     
  15 O15           -5.4297     0.7648    -0.2197 O.3     
  16 N16           -6.3924     0.1539    -0.6334 N.2     
  17 C17           -6.2022    -0.1974    -1.8755 C.2     
  18 N18           -4.9857     0.2586    -2.2389 N.2     
  19 C19           -4.5068     0.8664    -1.1810 C.2     
  20 O20           -7.0666    -0.8923    -2.6560 O.3     
  21 C21           -8.2066    -1.3617    -2.0841 C.ar    
  22 C22           -8.5291    -1.0043    -0.7831 C.ar    
  23 C23           -9.6902    -1.4836    -0.2035 C.ar    
  24 C24          -10.5293    -2.3193    -0.9221 C.ar    
  25 C25          -10.2083    -2.6755    -2.2184 C.ar    
  26 C26           -9.0523    -2.1942    -2.8028 C.ar    
  27 F27          -10.0055    -1.1370     1.0636 F       
  28 H28            1.9396    -2.9527    -1.3495 H       
  29 H29            1.8926    -0.4940    -1.2245 H       
  30 H30           -1.5496    -0.8181     1.3249 H       
  31 H31           -1.3817    -3.2658     1.1165 H       
  32 H32           -2.1087    -0.1415    -0.2520 H       
  33 H33           -2.9120     0.8828     0.9657 H       
  34 H34           -2.6381     1.4696    -2.0185 H       
  35 H35           -3.9841     3.4980    -1.4975 H       
  36 H36           -3.8851     3.1071     0.2359 H       
  37 H37           -1.5000     3.6284    -1.5967 H       
  38 H38           -2.1697     4.7860    -0.4213 H       
  39 H39           -1.6574     3.2618     1.4368 H       
  40 H40           -0.1801     3.5155     0.4722 H       
  41 H41           -7.8743    -0.3531    -0.2232 H       
  42 H42          -11.4354    -2.6933    -0.4688 H       
  43 H43          -10.8640    -3.3271    -2.7768 H       
  44 H44           -8.8051    -2.4695    -3.8174 H       
@<TRIPOS>BOND
   1    1    2 2
   2    1    5 1
   3    1    9 am
   4    3    4 ar
   5    3    8 ar
   6    3   28 1
   7    4    5 ar
   8    4   29 1
   9    5    6 ar
  10    6    7 ar
  11    6   30 1
  12    7    8 ar
  13    7   31 1
  14    9   10 1
  15    9   14 1
  16   10   11 1
  17   10   32 1
  18   10   33 1
  19   11   12 1
  20   11   19 1
  21   11   34 1
  22   12   13 1
  23   12   35 1
  24   12   36 1
  25   13   14 1
  26   13   37 1
  27   13   38 1
  28   14   39 1
  29   14   40 1
  30   15   16 1
  31   15   19 1
  32   16   17 2
  33   17   18 1
  34   17   20 1
  35   18   19 2
  36   20   21 1
  37   21   22 ar
  38   21   26 ar
  39   22   23 ar
  40   22   41 1
  41   23   24 ar
  42   23   27 1
  43   24   25 ar
  44   24   42 1
  45   25   26 ar
  46   25   43 1
  47   26   44 1

#	End of record

