#	Name: ASD01880910
#	Creating user name:	WinNT
#	Creation time:	15. 06. 2019 19:41

#	Modifying user name:	WinNT
#	Modification time:	15. 06. 2019 19:41

#	Program:	/corina/corina34_cracker 3.40 0067  02.08.2006

@<TRIPOS>MOLECULE
ASD01880910
  53   56    0    0    0
SMALL
NO_CHARGES


@<TRIPOS>ATOM
   1 N1            -0.0314     1.2639    -0.1631 N.ar    
   2 C2             0.0466    -0.0493    -0.2021 C.ar    
   3 N3             1.1914    -0.6852    -0.0503 N.ar    
   4 C4             2.3225    -0.0178     0.1502 C.ar    
   5 C5             2.2874     1.3732     0.1989 C.ar    
   6 C6             1.0576     2.0078     0.0339 C.ar    
   7 C7             3.5456     2.1713     0.4246 C.3     
   8 O8             4.2283     2.3459    -0.8185 O.3     
   9 C9             5.3892     3.0482    -0.7906 C.ar    
  10 C10            6.1048     3.2554    -1.9658 C.ar    
  11 C11            7.2787     3.9664    -1.9362 C.ar    
  12 C12            7.7618     4.4851    -0.7303 C.ar    
  13 C13            7.0390     4.2745     0.4472 C.ar    
  14 C14            5.8594     3.5647     0.4110 C.ar    
  15 C15            8.2733     4.3625    -2.9989 C.3     
  16 N16            9.3239     5.1237    -2.3133 N.am    
  17 C17            9.0248     5.1920    -1.0048 C.2     
  18 O18            9.7005     5.7572    -0.1667 O.2     
  19 C19            7.5475     4.8269     1.7538 C.3     
  20 C20            0.9617     3.4869     0.0767 C.ar    
  21 C21            1.8928     4.2658    -0.6105 C.ar    
  22 C22            1.8051     5.6394    -0.5712 C.ar    
  23 C23            0.7826     6.2530     0.1570 C.ar    
  24 C24           -0.1497     5.4717     0.8445 C.ar    
  25 C25           -0.0629     4.0982     0.7993 C.ar    
  26 C26            0.6906     7.6814     0.1991 C.1     
  27 N27            0.6175     8.8145     0.2325 N.1     
  28 C28           10.1828     7.1373    -3.4038 C.3     
  29 C29           10.5048     5.7120    -2.9503 C.3     
  30 O30            3.4938    -0.6816     0.3056 O.3     
  31 C31            3.4442    -2.1084     0.2428 C.3     
  32 H32           -0.8541    -0.6231    -0.3631 H       
  33 H33            3.2880     3.1465     0.8378 H       
  34 H34            4.1924     1.6401     1.1229 H       
  35 H35            5.7372     2.8571    -2.9000 H       
  36 H36            5.3011     3.4026     1.3212 H       
  37 H37            8.6981     3.4733    -3.4647 H       
  38 H38            7.7896     4.9855    -3.7512 H       
  39 H39            7.1482     5.8300     1.9042 H       
  40 H40            7.2255     4.1815     2.5711 H       
  41 H41            8.6364     4.8689     1.7314 H       
  42 H42            2.6831     3.7913    -1.1733 H       
  43 H43            2.5265     6.2422    -1.1027 H       
  44 H44           -0.9403     5.9448     1.4079 H       
  45 H45           -0.7836     3.4941     1.3304 H       
  46 H46           11.0614     7.5750    -3.8778 H       
  47 H47            9.3588     7.1143    -4.1170 H       
  48 H48            9.8988     7.7381    -2.5398 H       
  49 H49           11.3287     5.7350    -2.2372 H       
  50 H50           10.7887     5.1112    -3.8143 H       
  51 H51            4.4466    -2.5132     0.3821 H       
  52 H52            2.7884    -2.4840     1.0282 H       
  53 H53            3.0599    -2.4162    -0.7296 H       
@<TRIPOS>BOND
   1    1    2 ar
   2    1    6 ar
   3    2    3 ar
   4    2   32 1
   5    3    4 ar
   6    4    5 ar
   7    4   30 1
   8    5    6 ar
   9    5    7 1
  10    6   20 1
  11    7    8 1
  12    7   33 1
  13    7   34 1
  14    8    9 1
  15    9   10 ar
  16    9   14 ar
  17   10   11 ar
  18   10   35 1
  19   11   12 ar
  20   11   15 1
  21   12   13 ar
  22   12   17 1
  23   13   14 ar
  24   13   19 1
  25   14   36 1
  26   15   16 1
  27   15   37 1
  28   15   38 1
  29   16   17 am
  30   16   29 1
  31   17   18 2
  32   19   39 1
  33   19   40 1
  34   19   41 1
  35   20   21 ar
  36   20   25 ar
  37   21   22 ar
  38   21   42 1
  39   22   23 ar
  40   22   43 1
  41   23   24 ar
  42   23   26 1
  43   24   25 ar
  44   24   44 1
  45   25   45 1
  46   26   27 3
  47   28   29 1
  48   28   46 1
  49   28   47 1
  50   28   48 1
  51   29   49 1
  52   29   50 1
  53   30   31 1
  54   31   51 1
  55   31   52 1
  56   31   53 1

#	End of record

