#	Name: ASD01410022
#	Creating user name:	WinNT
#	Creation time:	15. 06. 2019 19:16

#	Modifying user name:	WinNT
#	Modification time:	15. 06. 2019 19:16

#	Program:	/corina/corina34_cracker 3.40 0067  02.08.2006

@<TRIPOS>MOLECULE
ASD01410022
  34   35    0    0    0
SMALL
NO_CHARGES


@<TRIPOS>ATOM
   1 C1            -0.0271     1.4207    -0.0666 C.ar    
   2 C2            -0.0039     0.0234    -0.0687 C.ar    
   3 C3            -1.1861    -0.6830    -0.0480 C.ar    
   4 C4            -2.4008    -0.0082    -0.0254 C.ar    
   5 C5            -2.4283     1.3811    -0.0232 C.ar    
   6 C6            -1.2507     2.0953    -0.0380 C.ar    
   7 O7            -3.5637    -0.7083    -0.0059 O.3     
   8 C8            -4.7759     0.0480     0.0168 C.3     
   9 C9            -5.9540    -0.8917     0.0362 C.2     
  10 N10           -7.2084    -0.3993     0.0592 N.am    
  11 C11           -8.2970    -1.2625    -0.0361 C.ar    
  12 C12           -8.2168    -2.4021    -0.8245 C.ar    
  13 C13           -9.2973    -3.2565    -0.9176 C.ar    
  14 C14          -10.4673    -2.9856    -0.2270 C.ar    
  15 C15          -10.5656    -1.8590     0.5608 C.ar    
  16 C16           -9.4790    -0.9876     0.6693 C.ar    
  17 O17           -5.7732    -2.0909     0.0311 O.2     
  18 C18           -9.5770     0.2187     1.5103 C.2     
  19 O19          -10.7489     0.5409     2.0923 O.3     
  20 O20           -8.6011     0.9228     1.6789 O.2     
  21 C21            1.1996     2.1592    -0.0876 C.1     
  22 N22            2.1728     2.7451    -0.1043 N.1     
  23 H23            0.9396    -0.5018    -0.0870 H       
  24 H24           -1.1692    -1.7629    -0.0496 H       
  25 H25           -3.3745     1.9016    -0.0056 H       
  26 H26           -1.2730     3.1751    -0.0363 H       
  27 H27           -4.7965     0.6749     0.9083 H       
  28 H28           -4.8280     0.6776    -0.8714 H       
  29 H29           -7.3529     0.5563     0.1421 H       
  30 H30           -7.3083    -2.6204    -1.3661 H       
  31 H31           -9.2301    -4.1415    -1.5329 H       
  32 H32          -11.3067    -3.6604    -0.3066 H       
  33 H33          -11.4801    -1.6523     1.0969 H       
  34 H34          -10.7643     1.3413     2.6348 H       
@<TRIPOS>BOND
   1    1    2 ar
   2    1   21 1
   3    1    6 ar
   4    2    3 ar
   5    2   23 1
   6    3    4 ar
   7    3   24 1
   8    4    5 ar
   9    4    7 1
  10    5    6 ar
  11    5   25 1
  12    6   26 1
  13    7    8 1
  14    8    9 1
  15    8   27 1
  16    8   28 1
  17    9   10 am
  18    9   17 2
  19   10   11 1
  20   10   29 1
  21   11   12 ar
  22   11   16 ar
  23   12   13 ar
  24   12   30 1
  25   13   14 ar
  26   13   31 1
  27   14   15 ar
  28   14   32 1
  29   15   16 ar
  30   15   33 1
  31   16   18 1
  32   18   19 1
  33   18   20 2
  34   19   34 1
  35   21   22 3

#	End of record

