#	Name: ASD02198441
#	Creating user name:	WinNT
#	Creation time:	15. 06. 2019 20:19

#	Modifying user name:	WinNT
#	Modification time:	15. 06. 2019 20:19

#	Program:	/corina/corina34_cracker 3.40 0067  02.08.2006

@<TRIPOS>MOLECULE
ASD02198441
  43   46    0    0    0
SMALL
NO_CHARGES


@<TRIPOS>ATOM
   1 C1             0.1638     1.8641     0.1835 C.ar    
   2 S2             0.0745     0.1100     0.0434 S.o2    
   3 N3             0.0238    -0.5027     1.5810 N.am    
   4 C4            -1.0192    -0.1510     2.4379 C.ar    
   5 C5            -0.7782     0.0207     3.8187 C.ar    
   6 C6            -1.8555     0.3785     4.6656 C.ar    
   7 C7            -3.1393     0.5554     4.1234 C.ar    
   8 C8            -3.3419     0.3823     2.7869 C.ar    
   9 C9            -2.2912     0.0369     1.9424 C.ar    
  10 N10            0.4435    -0.1492     4.3312 N.ar    
  11 C11            0.6734     0.0085     5.6121 C.ar    
  12 C12           -0.3407     0.3594     6.5006 C.ar    
  13 C13           -1.6130     0.5493     6.0419 C.ar    
  14 O14           -1.1849    -0.1818    -0.5465 O.2     
  15 O15            1.3110    -0.3114    -0.5159 O.2     
  16 C16            1.3928     2.4877     0.2529 C.ar    
  17 C17            1.4619     3.8756     0.3633 C.ar    
  18 C18            0.2880     4.6255     0.4030 C.ar    
  19 C19           -0.9358     3.9910     0.3328 C.ar    
  20 C20           -0.9983     2.6141     0.2180 C.ar    
  21 C21            2.7798     4.5515     0.4388 C.ar    
  22 C22            2.8596     5.9420     0.5496 C.ar    
  23 C23            4.1132     6.5236     0.6171 C.ar    
  24 N24            5.1871     5.7502     0.5749 N.ar    
  25 C25            5.0783     4.4405     0.4699 C.ar    
  26 N26            3.9069     3.8428     0.4077 N.ar    
  27 C27            6.3305     3.6032     0.4252 C.3     
  28 Br28          -4.5841     1.0323     5.2463 Br      
  29 H29            0.7194    -1.1061     1.8858 H       
  30 H30           -4.3314     0.5195     2.3765 H       
  31 H31           -2.4768    -0.0943     0.8866 H       
  32 H32            1.6751    -0.1378     5.9885 H       
  33 H33           -0.1209     0.4819     7.5509 H       
  34 H34           -2.4113     0.8219     6.7164 H       
  35 H35            2.2994     1.9015     0.2221 H       
  36 H36            0.3356     5.7010     0.4888 H       
  37 H37           -1.8463     4.5711     0.3634 H       
  38 H38           -1.9580     2.1218     0.1630 H       
  39 H39            1.9657     6.5472     0.5814 H       
  40 H40            4.2146     7.5955     0.7028 H       
  41 H41            6.6150     3.3207     1.4388 H       
  42 H42            6.1461     2.7050    -0.1641 H       
  43 H43            7.1360     4.1783    -0.0314 H       
@<TRIPOS>BOND
   1    1    2 1
   2    1   16 ar
   3    1   20 ar
   4    2    3 am
   5    2   14 2
   6    2   15 2
   7    3    4 1
   8    3   29 1
   9    4    5 ar
  10    4    9 ar
  11    5    6 ar
  12    5   10 ar
  13    6    7 ar
  14    6   13 ar
  15    7    8 ar
  16    7   28 1
  17    8    9 ar
  18    8   30 1
  19    9   31 1
  20   10   11 ar
  21   11   12 ar
  22   11   32 1
  23   12   13 ar
  24   12   33 1
  25   13   34 1
  26   16   17 ar
  27   16   35 1
  28   17   18 ar
  29   17   21 1
  30   18   19 ar
  31   18   36 1
  32   19   20 ar
  33   19   37 1
  34   20   38 1
  35   21   22 ar
  36   21   26 ar
  37   22   23 ar
  38   22   39 1
  39   23   24 ar
  40   23   40 1
  41   24   25 ar
  42   25   26 ar
  43   25   27 1
  44   27   41 1
  45   27   42 1
  46   27   43 1

#	End of record

