#	Name: ASD00060024
#	Creating user name:	WinNT
#	Creation time:	15. 06. 2019 18:29

#	Modifying user name:	WinNT
#	Modification time:	15. 06. 2019 18:29

#	Program:	/corina/corina34_cracker 3.40 0067  02.08.2006

@<TRIPOS>MOLECULE
ASD00060024
  35   36    0    0    0
SMALL
NO_CHARGES


@<TRIPOS>ATOM
   1 C1            -0.1180     1.7903     0.6437 C.ar    
   2 C2            -0.3826     0.8157    -0.3075 C.ar    
   3 C3            -1.6314     0.2276    -0.3631 C.ar    
   4 C4            -2.6170     0.6095     0.5281 C.ar    
   5 C5            -2.3559     1.5809     1.4767 C.ar    
   6 C6            -1.1069     2.1677     1.5406 C.ar    
   7 C7            -3.9784    -0.0337     0.4651 C.3     
   8 C8            -4.0458    -1.1844     1.4713 C.3     
   9 C9            -5.4477    -1.7361     1.5103 C.2     
  10 O10           -6.1252    -1.7356     0.5098 O.2     
  11 O11           -5.9437    -2.2279     2.6565 O.3     
  12 C12           -3.0894    -2.2721     1.0552 C.ar    
  13 C13           -2.0627    -2.6501     1.9002 C.ar    
  14 C14           -1.1853    -3.6479     1.5186 C.ar    
  15 C15           -1.3349    -4.2679     0.2922 C.ar    
  16 C16           -2.3620    -3.8905    -0.5524 C.ar    
  17 C17           -3.2420    -2.8958    -0.1690 C.ar    
  18 O18            1.1097     2.3704     0.7005 O.3     
  19 C19            1.3108     3.3663     1.7054 C.3     
  20 H20            0.3869     0.5173    -1.0041 H       
  21 H21           -1.8380    -0.5309    -1.1037 H       
  22 H22           -3.1276     1.8778     2.1716 H       
  23 H23           -0.9034     2.9264     2.2817 H       
  24 H24           -4.7414     0.7060     0.7075 H       
  25 H25           -4.1521    -0.4190    -0.5396 H       
  26 H26           -3.7717    -0.8184     2.4607 H       
  27 H27           -6.8476    -2.5707     2.6324 H       
  28 H28           -1.9459    -2.1657     2.8584 H       
  29 H29           -0.3828    -3.9427     2.1785 H       
  30 H30           -0.6489    -5.0469    -0.0063 H       
  31 H31           -2.4787    -4.3747    -1.5107 H       
  32 H32           -4.0446    -2.6009    -0.8288 H       
  33 H33            2.3302     3.7469     1.6409 H       
  34 H34            0.6071     4.1844     1.5521 H       
  35 H35            1.1486     2.9271     2.6897 H       
@<TRIPOS>BOND
   1    1    2 ar
   2    1   18 1
   3    1    6 ar
   4    2    3 ar
   5    2   20 1
   6    3    4 ar
   7    3   21 1
   8    4    5 ar
   9    4    7 1
  10    5    6 ar
  11    5   22 1
  12    6   23 1
  13    7    8 1
  14    7   24 1
  15    7   25 1
  16    8    9 1
  17    8   12 1
  18    8   26 1
  19    9   10 2
  20    9   11 1
  21   11   27 1
  22   12   13 ar
  23   12   17 ar
  24   13   14 ar
  25   13   28 1
  26   14   15 ar
  27   14   29 1
  28   15   16 ar
  29   15   30 1
  30   16   17 ar
  31   16   31 1
  32   17   32 1
  33   18   19 1
  34   19   33 1
  35   19   34 1
  36   19   35 1

#	End of record

