#	Name: ASD08150503
#	Creating user name:	WinNT
#	Creation time:	15. 06. 2019 21:16

#	Modifying user name:	WinNT
#	Modification time:	15. 06. 2019 21:16

#	Program:	/corina/corina34_cracker 3.40 0067  02.08.2006

@<TRIPOS>MOLECULE
ASD08150503
  48   52    0    0    0
SMALL
NO_CHARGES


@<TRIPOS>ATOM
   1 N1            -0.7391     1.5245    -6.8623 N.am    
   2 C2            -0.8970     0.5967    -7.8262 C.2     
   3 C3             0.0235    -0.4613    -7.9702 C.2     
   4 C4             1.0879    -0.5592    -7.1335 C.2     
   5 C5             1.2571     0.4151    -6.1182 C.ar    
   6 C6             2.3439     0.3602    -5.2246 C.ar    
   7 N7             2.4979     1.2605    -4.2891 N.ar    
   8 C8             1.6403     2.2792    -4.1255 C.ar    
   9 C9             0.5179     2.4134    -4.9795 C.ar    
  10 C10            0.3226     1.4556    -6.0020 C.ar    
  11 C11           -0.1424     4.3930    -3.7847 C.ar    
  12 C12            0.9706     4.2538    -2.9437 C.ar    
  13 C13            1.8437     3.2238    -3.1062 C.ar    
  14 O14           -1.8489     0.6728    -8.5841 O.2     
  15 C15           -1.6638     2.5686    -6.7438 C.ar    
  16 C16           -1.3593     3.8278    -7.2439 C.ar    
  17 C17           -2.2742     4.8559    -7.1257 C.ar    
  18 C18           -3.4918     4.6325    -6.5099 C.ar    
  19 C19           -3.7981     3.3795    -6.0108 C.ar    
  20 C20           -2.8902     2.3460    -6.1308 C.ar    
  21 C21           -4.4871     5.7567    -6.3819 C.3     
  22 C22           -0.3706     3.4781    -4.7997 C.ar    
  23 C23           -1.0800     5.5253    -3.5869 C.ar    
  24 C24           -2.3857     5.4522    -4.0639 C.ar    
  25 N25           -3.2221     6.4560    -3.8898 N.ar    
  26 C26           -2.8609     7.5628    -3.2617 C.ar    
  27 C27           -1.5738     7.7098    -2.7573 C.ar    
  28 C28           -0.6664     6.6799    -2.9130 C.ar    
  29 O29           -3.7585     8.5683    -3.1082 O.3     
  30 N30           -1.9505     6.1984    -7.6585 N.pl3   
  31 O31           -2.8194     6.8707    -8.1844 O.2     
  32 O32           -0.8152     6.6309    -7.5709 O.2     
  33 H33           -0.1188    -1.1965    -8.7484 H       
  34 H34            1.7955    -1.3682    -7.2398 H       
  35 H35            3.0632    -0.4405    -5.3133 H       
  36 H36            1.1371     4.9743    -2.1566 H       
  37 H37            2.6958     3.1318    -2.4491 H       
  38 H38           -0.4081     4.0031    -7.7243 H       
  39 H39           -4.7499     3.2083    -5.5300 H       
  40 H40           -3.1300     1.3678    -5.7409 H       
  41 H41           -5.1865     5.7197    -7.2171 H       
  42 H42           -5.0343     5.6527    -5.4449 H       
  43 H43           -3.9605     6.7110    -6.3911 H       
  44 H44           -1.2280     3.5865    -5.4473 H       
  45 H45           -2.7167     4.5644    -4.5822 H       
  46 H46           -1.2879     8.6170    -2.2459 H       
  47 H47            0.3400     6.7668    -2.5308 H       
  48 H48           -4.2800     8.5094    -2.2959 H       
@<TRIPOS>BOND
   1    1    2 am
   2    1   10 1
   3    1   15 1
   4    2    3 1
   5    2   14 2
   6    3    4 2
   7    3   33 1
   8    4    5 1
   9    4   34 1
  10    5    6 ar
  11    5   10 ar
  12    6    7 ar
  13    6   35 1
  14    7    8 ar
  15    8    9 ar
  16    8   13 ar
  17    9   10 ar
  18    9   22 ar
  19   11   12 ar
  20   11   23 1
  21   11   22 ar
  22   12   13 ar
  23   12   36 1
  24   13   37 1
  25   15   16 ar
  26   15   20 ar
  27   16   17 ar
  28   16   38 1
  29   17   18 ar
  30   17   30 1
  31   18   19 ar
  32   18   21 1
  33   19   20 ar
  34   19   39 1
  35   20   40 1
  36   21   41 1
  37   21   42 1
  38   21   43 1
  39   22   44 1
  40   23   24 ar
  41   23   28 ar
  42   24   25 ar
  43   24   45 1
  44   25   26 ar
  45   26   27 ar
  46   26   29 1
  47   27   28 ar
  48   27   46 1
  49   28   47 1
  50   29   48 1
  51   30   31 2
  52   30   32 2

#	End of record

