#	Name: ASD01310033
#	Creating user name:	WinNT
#	Creation time:	15. 06. 2019 19:15

#	Modifying user name:	WinNT
#	Modification time:	15. 06. 2019 19:15

#	Program:	/corina/corina34_cracker 3.40 0067  02.08.2006

@<TRIPOS>MOLECULE
ASD01310033
  42   45    0    0    0
SMALL
NO_CHARGES


@<TRIPOS>ATOM
   1 C1             0.0964     1.3617     0.0001 C.ar    
   2 C2             0.1693    -0.0220    -0.0151 C.ar    
   3 C3             2.4910     1.4904    -0.0478 C.ar    
   4 C4             1.2558     2.1131    -0.0160 C.ar    
   5 C5             2.5737     0.1113    -0.0627 C.ar    
   6 S6             1.1609     3.8724     0.0034 S.o2    
   7 O7             2.3758     4.3460    -0.5612 O.2     
   8 O8            -0.1195     4.2109    -0.5118 O.2     
   9 N9             1.1666     4.3461     1.5901 N.am    
  10 C10            2.1892     4.7043     2.5846 C.3     
  11 O11           -0.7719    -0.9975    -0.0057 O.3     
  12 C12           -0.1660    -2.1951    -0.0299 C.2     
  13 N13            1.1703    -2.0217    -0.0553 N.am    
  14 C14            1.4152    -0.6488    -0.0467 C.ar    
  15 O15           -0.7347    -3.2698    -0.0284 O.2     
  16 C16            0.1511     4.6002     2.6231 C.3     
  17 C17            1.1335     5.5788     3.2753 C.3     
  18 O18            1.1608     5.5176     4.7027 O.3     
  19 C19            1.6033     6.6230     5.3598 C.ar    
  20 C20            2.1154     7.6954     4.6474 C.ar    
  21 C21            2.5647     8.8193     5.3173 C.ar    
  22 C22            2.5039     8.8749     6.6985 C.ar    
  23 C23            1.9944     7.8075     7.4142 C.ar    
  24 C24            1.5375     6.6816     6.7484 C.ar    
  25 O25            1.0308     5.6331     7.4513 O.3     
  26 C26            0.9941     5.7630     8.8739 C.3     
  27 Cl27           3.2066    10.1620     4.4236 Cl      
  28 H28           -0.8656     1.8523     0.0200 H       
  29 H29            3.3931     2.0841    -0.0610 H       
  30 H30            3.5387    -0.3730    -0.0875 H       
  31 H31            2.5187     3.8609     3.1914 H       
  32 H32            3.0195     5.2741     2.1676 H       
  33 H33            1.8395    -2.7236    -0.0754 H       
  34 H34           -0.7481     5.0817     2.2387 H       
  35 H35           -0.0678     3.7288     3.2402 H       
  36 H36            1.0762     6.5954     2.8864 H       
  37 H37            2.1641     7.6539     3.5692 H       
  38 H38            2.8555     9.7537     7.2184 H       
  39 H39            1.9483     7.8532     8.4922 H       
  40 H40            2.0062     5.9072     9.2519 H       
  41 H41            0.3794     6.6215     9.1447 H       
  42 H42            0.5685     4.8594     9.3104 H       
@<TRIPOS>BOND
   1    1    2 ar
   2    1    4 ar
   3    1   28 1
   4    2   11 1
   5    2   14 ar
   6    3    4 ar
   7    3    5 ar
   8    3   29 1
   9    4    6 1
  10    5   14 ar
  11    5   30 1
  12    6    7 2
  13    6    8 2
  14    6    9 am
  15    9   10 1
  16    9   16 1
  17   10   17 1
  18   10   31 1
  19   10   32 1
  20   11   12 1
  21   12   13 am
  22   12   15 2
  23   13   14 1
  24   13   33 1
  25   16   17 1
  26   16   34 1
  27   16   35 1
  28   17   18 1
  29   17   36 1
  30   18   19 1
  31   19   20 ar
  32   19   24 ar
  33   20   21 ar
  34   20   37 1
  35   21   22 ar
  36   21   27 1
  37   22   23 ar
  38   22   38 1
  39   23   24 ar
  40   23   39 1
  41   24   25 1
  42   25   26 1
  43   26   40 1
  44   26   41 1
  45   26   42 1

#	End of record

