#	Name: ASD04590084
#	Creating user name:	WinNT
#	Creation time:	15. 06. 2019 20:50

#	Modifying user name:	WinNT
#	Modification time:	15. 06. 2019 20:50

#	Program:	/corina/corina34_cracker 3.40 0067  02.08.2006

@<TRIPOS>MOLECULE
ASD04590084
  35   36    0    0    0
SMALL
NO_CHARGES


@<TRIPOS>ATOM
   1 N1             0.3068     1.4706    -0.2515 N.3     
   2 C2             0.3268     0.0018    -0.2596 C.3     
   3 C3            -1.0444    -0.5292     0.1633 C.3     
   4 C4            -1.0237    -2.0590     0.1549 C.3     
   5 C5            -0.6964    -2.5569    -1.2543 C.3     
   6 C6             0.6748    -2.0259    -1.6772 C.3     
   7 C7             0.6540    -0.4961    -1.6688 C.3     
   8 N8            -0.6765    -4.0257    -1.2624 N.3     
   9 C9            -2.0303    -4.5698    -1.1332 C.3     
  10 C10           -2.0442    -6.0406    -1.5611 C.3     
  11 S11           -0.9673    -6.9834    -0.4399 S.o2    
  12 C12            0.5661    -6.0108    -0.5313 C.3     
  13 C13            0.2349    -4.5440    -0.2396 C.3     
  14 O14           -1.4886    -6.8893     0.8787 O.2     
  15 O15           -0.7290    -8.2643    -1.0070 O.2     
  16 H16            1.2019     1.8459    -0.5275 H       
  17 H17           -0.4313     1.8255    -0.8408 H       
  18 H18            1.0852    -0.3551     0.4371 H       
  19 H19           -1.2776    -0.1745     1.1673 H       
  20 H20           -1.8029    -0.1723    -0.5334 H       
  21 H21           -0.2652    -2.4160     0.8516 H       
  22 H22           -2.0005    -2.4373     0.4562 H       
  23 H23           -1.4549    -2.2000    -1.9510 H       
  24 H24            1.4333    -2.3828    -0.9805 H       
  25 H25            0.9079    -2.3806    -2.6812 H       
  26 H26           -0.1045    -0.1392    -2.3655 H       
  27 H27            1.6309    -0.1178    -1.9701 H       
  28 H28           -2.3544    -4.4915    -0.0955 H       
  29 H29           -2.7108    -4.0017    -1.7675 H       
  30 H30           -3.0612    -6.4285    -1.5036 H       
  31 H31           -1.6742    -6.1277    -2.5827 H       
  32 H32            1.2774    -6.3791     0.2080 H       
  33 H33            0.9951    -6.0973    -1.5296 H       
  34 H34            1.1538    -3.9577    -0.2429 H       
  35 H35           -0.2384    -4.4674     0.7393 H       
@<TRIPOS>BOND
   1    1    2 1
   2    1   16 1
   3    1   17 1
   4    2    3 1
   5    2    7 1
   6    2   18 1
   7    3    4 1
   8    3   19 1
   9    3   20 1
  10    4    5 1
  11    4   21 1
  12    4   22 1
  13    5    6 1
  14    5    8 1
  15    5   23 1
  16    6    7 1
  17    6   24 1
  18    6   25 1
  19    7   26 1
  20    7   27 1
  21    8    9 1
  22    8   13 1
  23    9   10 1
  24    9   28 1
  25    9   29 1
  26   10   11 1
  27   10   30 1
  28   10   31 1
  29   11   12 1
  30   11   14 2
  31   11   15 2
  32   12   13 1
  33   12   32 1
  34   12   33 1
  35   13   34 1
  36   13   35 1

#	End of record

