#	Name: ASD07300195
#	Creating user name:	WinNT
#	Creation time:	15. 06. 2019 21:09

#	Modifying user name:	WinNT
#	Modification time:	15. 06. 2019 21:09

#	Program:	/corina/corina34_cracker 3.40 0067  02.08.2006

@<TRIPOS>MOLECULE
ASD07300195
  52   57    0    0    0
SMALL
NO_CHARGES


@<TRIPOS>ATOM
   1 C1            -0.4822     1.2574     1.2005 C.ar    
   2 C2            -0.5443    -0.1388     1.2483 C.ar    
   3 C3             0.5787    -0.8565     1.6318 C.ar    
   4 C4             1.7291    -0.1516     1.9554 C.ar    
   5 C5             1.7195     1.2288     1.8860 C.ar    
   6 N6             0.6371     1.8867     1.5180 N.ar    
   7 C7            -2.5261     0.6236     0.6052 C.2     
   8 N8            -1.7371     1.6974     0.7952 N.am    
   9 N9            -1.8323    -0.5010     0.8655 N.am    
  10 O10           -3.6886     0.6627     0.2481 O.2     
  11 C11           -2.3474    -1.8692     0.7708 C.3     
  12 C12           -2.9542    -2.2798     2.1140 C.3     
  13 C13           -3.6540    -3.6384     2.1872 C.3     
  14 C14           -2.2949    -3.4405     2.8617 C.3     
  15 C15           -2.1175     3.0356     0.6155 C.ar    
  16 C16           -2.6576     3.7524     1.6749 C.ar    
  17 C17           -3.0313     5.0695     1.4976 C.ar    
  18 C18           -2.8677     5.6769     0.2608 C.ar    
  19 C19           -2.3281     4.9612    -0.7980 C.ar    
  20 C20           -1.9487     3.6453    -0.6201 C.ar    
  21 C21           -2.8363     3.0926     3.0180 C.3     
  22 O22           -3.2367     6.9738     0.0864 O.3     
  23 C23           -2.4286     7.9367     0.5862 C.2     
  24 N24           -1.2655     7.7251     1.1454 N.2     
  25 C25           -0.7237     8.9092     1.5339 C.ar    
  26 C26           -1.6365     9.9165     1.1791 C.ar    
  27 N27           -2.7037     9.2729     0.5762 N.pl3   
  28 C28            0.4728     9.2568     2.1651 C.ar    
  29 C29            0.7455    10.5798     2.4328 C.ar    
  30 C30           -0.1591    11.5702     2.0808 C.ar    
  31 C31           -1.3455    11.2434     1.4567 C.ar    
  32 H32            0.5583    -1.9353     1.6777 H       
  33 H33            2.6230    -0.6762     2.2587 H       
  34 H34            2.6144     1.7786     2.1376 H       
  35 H35           -3.1132    -1.9164    -0.0034 H       
  36 H36           -1.5325    -2.5475     0.5177 H       
  37 H37           -3.3689    -1.4673     2.7106 H       
  38 H38           -4.5288    -3.7198     2.8323 H       
  39 H39           -3.6821    -4.2397     1.2785 H       
  40 H40           -1.4290    -3.9117     2.3966 H       
  41 H41           -2.2757    -3.3917     3.9504 H       
  42 H42           -3.4514     5.6271     2.3216 H       
  43 H43           -2.2009     5.4344    -1.7605 H       
  44 H44           -1.5245     3.0895    -1.4432 H       
  45 H45           -1.9369     3.2375     3.6165 H       
  46 H46           -3.6894     3.5371     3.5305 H       
  47 H47           -3.0117     2.0259     2.8783 H       
  48 H48           -3.5000     9.6935     0.2159 H       
  49 H49            1.1815     8.4906     2.4427 H       
  50 H50            1.6708    10.8481     2.9209 H       
  51 H51            0.0663    12.6040     2.2970 H       
  52 H52           -2.0456    12.0195     1.1847 H       
@<TRIPOS>BOND
   1    1    2 ar
   2    1    6 ar
   3    1    8 1
   4    2    3 ar
   5    2    9 1
   6    3    4 ar
   7    3   32 1
   8    4    5 ar
   9    4   33 1
  10    5    6 ar
  11    5   34 1
  12    7    8 am
  13    7    9 am
  14    7   10 2
  15    8   15 1
  16    9   11 1
  17   11   12 1
  18   11   35 1
  19   11   36 1
  20   12   13 1
  21   12   14 1
  22   12   37 1
  23   13   14 1
  24   13   38 1
  25   13   39 1
  26   14   40 1
  27   14   41 1
  28   15   16 ar
  29   15   20 ar
  30   16   17 ar
  31   16   21 1
  32   17   18 ar
  33   17   42 1
  34   18   19 ar
  35   18   22 1
  36   19   20 ar
  37   19   43 1
  38   20   44 1
  39   21   45 1
  40   21   46 1
  41   21   47 1
  42   22   23 1
  43   23   24 2
  44   23   27 1
  45   24   25 1
  46   25   26 ar
  47   25   28 ar
  48   26   27 1
  49   26   31 ar
  50   27   48 1
  51   28   29 ar
  52   28   49 1
  53   29   30 ar
  54   29   50 1
  55   30   31 ar
  56   30   51 1
  57   31   52 1

#	End of record

