#	Name: ASD01230795
#	Creating user name:	WinNT
#	Creation time:	15. 06. 2019 19:15

#	Modifying user name:	WinNT
#	Modification time:	15. 06. 2019 19:15

#	Program:	/corina/corina34_cracker 3.40 0067  02.08.2006

@<TRIPOS>MOLECULE
ASD01230795
  39   43    0    0    0
SMALL
NO_CHARGES


@<TRIPOS>ATOM
   1 C1            -0.0166     1.3736     0.0096 C.2     
   2 C2             0.0021    -0.0041     0.0020 C.2     
   3 C3            -1.2146    -0.7002     0.0083 C.2     
   4 C4            -2.3849    -0.0394     0.0110 C.2     
   5 N5            -2.4622     1.3312     0.0013 N.pl3   
   6 C6            -1.3174     2.0758     0.0320 C.2     
   7 C7            -3.8098     1.9045    -0.0487 C.3     
   8 C8            -3.8779     3.1903     0.7804 C.3     
   9 S9            -2.6219     4.3263     0.1120 S.o2    
  10 N10           -1.2618     3.3847     0.0816 N.am    
  11 C11            1.2498     2.1409     0.0016 C.ar    
  12 O12           -2.8870     4.6254    -1.2516 O.2     
  13 O13           -2.3209     5.3523     1.0479 O.2     
  14 C14            2.0958     2.0727    -1.0944 C.ar    
  15 C15            3.2998     2.7993    -1.1062 C.ar    
  16 C16            3.6322     3.5850    -0.0109 C.ar    
  17 C17            2.7676     3.6465     1.0919 C.ar    
  18 C18            1.5915     2.9402     1.0978 C.ar    
  19 C19            5.3883     3.6706    -1.8572 C.ar    
  20 S20            5.1742     4.3868    -0.2679 S.3     
  21 C21            4.3162     2.8492    -2.1740 C.ar    
  22 C22            4.3039     2.1809    -3.4135 C.ar    
  23 C23            5.3418     2.3408    -4.2985 C.ar    
  24 C24            6.4117     3.1628    -3.9781 C.ar    
  25 C25            6.4388     3.8223    -2.7719 C.ar    
  26 H26            0.9399    -0.5395    -0.0090 H       
  27 H27           -1.2116    -1.7802     0.0107 H       
  28 H28           -3.3019    -0.6099     0.0207 H       
  29 H29           -4.0664     2.1301    -1.0838 H       
  30 H30           -4.5228     1.1822     0.3486 H       
  31 H31           -4.8680     3.6375     0.6917 H       
  32 H32           -3.6611     2.9702     1.8257 H       
  33 H33            1.8295     1.4590    -1.9423 H       
  34 H34            3.0284     4.2584     1.9427 H       
  35 H35            0.9332     2.9948     1.9522 H       
  36 H36            3.4740     1.5389    -3.6694 H       
  37 H37            5.3249     1.8244    -5.2469 H       
  38 H38            7.2257     3.2849    -4.6773 H       
  39 H39            7.2746     4.4614    -2.5282 H       
@<TRIPOS>BOND
   1    1    2 2
   2    1   11 1
   3    1    6 1
   4    2    3 1
   5    2   26 1
   6    3    4 2
   7    3   27 1
   8    4    5 1
   9    4   28 1
  10    5    6 1
  11    5    7 1
  12    6   10 2
  13    7    8 1
  14    7   29 1
  15    7   30 1
  16    8    9 1
  17    8   31 1
  18    8   32 1
  19    9   10 am
  20    9   12 2
  21    9   13 2
  22   11   14 ar
  23   11   18 ar
  24   14   15 ar
  25   14   33 1
  26   15   16 ar
  27   15   21 1
  28   16   17 ar
  29   16   20 1
  30   17   18 ar
  31   17   34 1
  32   18   35 1
  33   19   20 1
  34   19   21 ar
  35   19   25 ar
  36   21   22 ar
  37   22   23 ar
  38   22   36 1
  39   23   24 ar
  40   23   37 1
  41   24   25 ar
  42   24   38 1
  43   25   39 1

#	End of record

