#	Name: ASD08178140
#	Creating user name:	WinNT
#	Creation time:	15. 06. 2019 21:18

#	Modifying user name:	WinNT
#	Modification time:	15. 06. 2019 21:18

#	Program:	/corina/corina34_cracker 3.40 0067  02.08.2006

@<TRIPOS>MOLECULE
ASD08178140
  81   84    0    0    0
SMALL
NO_CHARGES


@<TRIPOS>ATOM
   1 C1            -0.0191     1.5027     0.0207 C.ar    
   2 C2             0.0010    -0.0042     0.0166 C.3     
   3 C3            -0.8034    -0.5283     1.2078 C.3     
   4 C4            -0.7830    -2.0581     1.2036 C.3     
   5 C5            -1.5874    -2.5822     2.3949 C.3     
   6 C6            -1.5673    -4.0891     2.3907 C.2     
   7 N7            -0.6926    -4.8430     2.9773 N.2     
   8 N8            -0.8493    -6.0898     2.8558 N.2     
   9 C9            -1.8644    -6.5050     2.1598 C.2     
  10 S10           -2.7350    -5.1430     1.5925 S.3     
  11 N11           -2.1931    -7.8348     1.9197 N.am    
  12 C12            1.1728     2.2124     0.0064 C.ar    
  13 C13            1.1067     3.5974     0.0109 C.ar    
  14 C14           -0.1542     4.1903     0.0295 C.ar    
  15 N15           -1.2376     3.4283     0.0422 N.ar    
  16 N16           -1.1697     2.1466     0.0324 N.ar    
  17 N17           -0.2749     5.5795     0.0353 N.am    
  18 C18           -1.4926     6.1505    -0.0517 C.2     
  19 O19           -2.4744     5.4610    -0.2290 O.2     
  20 C20           -1.6342     7.6458     0.0713 C.3     
  21 C21           -3.0867     8.0253    -0.0606 C.ar    
  22 C22           -3.8892     8.0891     1.0632 C.ar    
  23 C23           -5.2215     8.4372     0.9422 C.ar    
  24 C24           -5.7512     8.7220    -0.3024 C.ar    
  25 C25           -4.9485     8.6592    -1.4261 C.ar    
  26 C26           -3.6151     8.3153    -1.3046 C.ar    
  27 C27           -1.4281    -8.8206     2.4289 C.2     
  28 O28           -0.4530    -8.5481     3.0966 O.2     
  29 C29           -1.7844   -10.2616     2.1687 C.3     
  30 C30           -0.7780   -11.1576     2.8435 C.ar    
  31 C31           -0.9904   -11.5806     4.1425 C.ar    
  32 C32            0.3547   -11.5611     2.1619 C.ar    
  33 C33            1.2780   -12.3831     2.7809 C.ar    
  34 C34            1.0686   -12.8010     4.0816 C.ar    
  35 C35           -0.0674   -12.4024     4.7614 C.ar    
  36 C36           -0.2957   -12.8581     6.1796 C.3     
  37 N37            0.3002   -11.8914     7.1051 N.am    
  38 C38            0.2189   -12.0934     8.4352 C.2     
  39 O39           -0.3487   -13.0773     8.8667 O.2     
  40 O40            0.7666   -11.2049     9.2857 O.3     
  41 C41            0.6407   -11.4867    10.7046 C.3     
  42 C42            1.3114   -12.8253    11.0201 C.3     
  43 C43            1.3188   -10.3748    11.5075 C.3     
  44 C44           -0.8405   -11.5571    11.0811 C.3     
  45 H45           -0.4409    -0.3709    -0.9099 H       
  46 H46            1.0307    -0.3540     0.0913 H       
  47 H47           -0.3615    -0.1615     2.1343 H       
  48 H48           -1.8331    -0.1785     1.1331 H       
  49 H49           -1.2249    -2.4249     0.2772 H       
  50 H50            0.2467    -2.4079     1.2784 H       
  51 H51           -1.1455    -2.2155     3.3213 H       
  52 H52           -2.6171    -2.2324     2.3201 H       
  53 H53           -2.9730    -8.0528     1.3857 H       
  54 H54            2.1241     1.7012    -0.0074 H       
  55 H55            2.0044     4.1978     0.0007 H       
  56 H56            0.5176     6.1349     0.1018 H       
  57 H57           -1.2615     7.9672     1.0438 H       
  58 H58           -1.0588     8.1313    -0.7169 H       
  59 H59           -3.4753     7.8665     2.0356 H       
  60 H60           -5.8487     8.4863     1.8201 H       
  61 H61           -6.7923     8.9933    -0.3970 H       
  62 H62           -5.3624     8.8814    -2.3985 H       
  63 H63           -2.9879     8.2662    -2.1825 H       
  64 H64           -2.7782   -10.4676     2.5661 H       
  65 H65           -1.7761   -10.4498     1.0951 H       
  66 H66           -1.8775   -11.2687     4.6738 H       
  67 H67            0.5183   -11.2345     1.1455 H       
  68 H68            2.1627   -12.6990     2.2481 H       
  69 H69            1.7897   -13.4435     4.5651 H       
  70 H70           -1.3665   -12.9308     6.3699 H       
  71 H71            0.1665   -13.8342     6.3265 H       
  72 H72            0.7533   -11.1059     6.7607 H       
  73 H73            2.3666   -12.7751    10.7518 H       
  74 H74            1.2169   -13.0368    12.0852 H       
  75 H75            0.8283   -13.6174    10.4481 H       
  76 H76            0.8411    -9.4212    11.2827 H       
  77 H77            1.2244   -10.5863    12.5726 H       
  78 H78            2.3741   -10.3246    11.2392 H       
  79 H79           -1.3236   -12.3493    10.5091 H       
  80 H80           -0.9350   -11.7687    12.1462 H       
  81 H81           -1.3183   -10.6036    10.8563 H       
@<TRIPOS>BOND
   1    1    2 1
   2    1   12 ar
   3    1   16 ar
   4    2    3 1
   5    2   45 1
   6    2   46 1
   7    3    4 1
   8    3   47 1
   9    3   48 1
  10    4    5 1
  11    4   49 1
  12    4   50 1
  13    5    6 1
  14    5   51 1
  15    5   52 1
  16    6    7 2
  17    6   10 1
  18    7    8 1
  19    8    9 2
  20    9   10 1
  21    9   11 1
  22   11   27 am
  23   11   53 1
  24   12   13 ar
  25   12   54 1
  26   13   14 ar
  27   13   55 1
  28   14   15 ar
  29   14   17 1
  30   15   16 ar
  31   17   18 am
  32   17   56 1
  33   18   19 2
  34   18   20 1
  35   20   21 1
  36   20   57 1
  37   20   58 1
  38   21   22 ar
  39   21   26 ar
  40   22   23 ar
  41   22   59 1
  42   23   24 ar
  43   23   60 1
  44   24   25 ar
  45   24   61 1
  46   25   26 ar
  47   25   62 1
  48   26   63 1
  49   27   28 2
  50   27   29 1
  51   29   30 1
  52   29   64 1
  53   29   65 1
  54   30   31 ar
  55   30   32 ar
  56   31   35 ar
  57   31   66 1
  58   32   33 ar
  59   32   67 1
  60   33   34 ar
  61   33   68 1
  62   34   35 ar
  63   34   69 1
  64   35   36 1
  65   36   37 1
  66   36   70 1
  67   36   71 1
  68   37   38 am
  69   37   72 1
  70   38   39 2
  71   38   40 1
  72   40   41 1
  73   41   42 1
  74   41   43 1
  75   41   44 1
  76   42   73 1
  77   42   74 1
  78   42   75 1
  79   43   76 1
  80   43   77 1
  81   43   78 1
  82   44   79 1
  83   44   80 1
  84   44   81 1

#	End of record

