#	Name: ASD08170230
#	Creating user name:	WinNT
#	Creation time:	15. 06. 2019 21:17

#	Modifying user name:	WinNT
#	Modification time:	15. 06. 2019 21:17

#	Program:	/corina/corina34_cracker 3.40 0067  02.08.2006

@<TRIPOS>MOLECULE
ASD08170230
 117  122    0    0    0
SMALL
NO_CHARGES


@<TRIPOS>ATOM
   1 N1            -1.1744     2.2954    -1.1087 N.2     
   2 N2            -1.0774     1.0535    -0.9031 N.2     
   3 C3            -0.0744     2.9824    -1.1804 C.2     
   4 S4             1.2516     1.9206    -0.9592 S.3     
   5 C5             0.1213     0.5780    -0.7820 C.2     
   6 C6             0.4849    -0.8633    -0.5342 C.3     
   7 C7             0.6599    -1.5826    -1.8732 C.3     
   8 C8             1.6328    -5.4732    -3.1714 C.3     
   9 C9             1.7674    -6.0331    -4.5640 C.2     
  10 N10            2.8501    -6.0622    -5.2743 N.2     
  11 S11            0.4806    -6.7735    -5.5166 S.3     
  12 C12            1.5969    -7.0283    -6.7908 C.2     
  13 N13            2.7579    -6.5758    -6.4239 N.2     
  14 N14            1.3090    -7.6252    -8.0135 N.am    
  15 C15            2.2789    -7.7688    -8.9383 C.2     
  16 O16            3.4028    -7.3775    -8.7041 O.2     
  17 C17            1.9669    -8.4155   -10.2632 C.3     
  18 N18            0.0125     4.3529    -1.4007 N.am    
  19 C19            0.9024    -7.6190   -10.9727 C.ar    
  20 C20           -1.1096     5.0822    -1.5602 C.2     
  21 C21           -1.0154     6.5672    -1.7989 C.3     
  22 O22           -2.1951     4.5434    -1.5117 O.2     
  23 C23           -0.2315     6.8246    -3.0599 C.ar    
  24 C24            1.2597    -3.9915    -3.2513 C.3     
  25 S25            1.0977    -3.3175    -1.5749 S.3     
  26 C26            0.4346     8.0244    -3.2270 C.ar    
  27 C27            0.0857    -8.2324   -11.9041 C.ar    
  28 C28           -0.1738     5.8588    -4.0472 C.ar    
  29 C29            0.5453     6.0949    -5.2039 C.ar    
  30 C30            1.2063     7.2970    -5.3736 C.ar    
  31 C31            1.1536     8.2605    -4.3837 C.ar    
  32 C32           -0.8907    -7.5018   -12.5550 C.ar    
  33 C33           -1.0507    -6.1577   -12.2741 C.ar    
  34 C34           -0.2345    -5.5445   -11.3421 C.ar    
  35 C35            0.7390    -6.2761   -10.6881 C.ar    
  36 N36           -2.3662     7.1273    -1.9391 N.3     
  37 C37           -3.1371     6.9592    -0.7000 C.3     
  38 C38           -4.4665     7.7113    -0.8233 C.3     
  39 N39           -5.1477     7.2587    -2.0458 N.am    
  40 C40           -4.3921     7.2684    -3.3076 C.3     
  41 C41           -3.0657     6.5337    -3.0865 C.3     
  42 C42           -6.4303     6.8463    -2.0106 C.2     
  43 O43           -7.0366     6.4356    -3.1405 O.3     
  44 O44           -7.0396     6.8453    -0.9593 O.2     
  45 C45           -8.4188     6.0054    -3.0279 C.3     
  46 C46           -9.2714     7.1612    -2.5006 C.3     
  47 C47           -8.9336     5.5782    -4.4039 C.3     
  48 C48           -8.5078     4.8233    -2.0605 C.3     
  49 N49            3.1819    -8.4529   -11.0880 N.3     
  50 C50            4.2177    -9.2855   -10.4620 C.3     
  51 C51            3.6783    -7.0965   -11.3558 C.3     
  52 C52            5.3938    -9.4464   -11.4312 C.3     
  53 N53            5.8400    -8.1092   -11.8505 N.am    
  54 C54            4.8322    -7.1678   -12.3616 C.3     
  55 C55            7.1382    -7.7560   -11.7690 C.2     
  56 O56            7.9574    -8.5467   -11.3446 O.2     
  57 O57            7.5272    -6.5271   -12.1578 O.3     
  58 C58            8.9406    -6.2157   -12.0421 C.3     
  59 C59            9.7498    -7.1928   -12.8973 C.3     
  60 C60            9.1894    -4.7863   -12.5275 C.3     
  61 C61            9.3722    -6.3400   -10.5795 C.3     
  62 H62            1.4172    -0.9112     0.0285 H       
  63 H63           -0.3090    -1.3454     0.0362 H       
  64 H64           -0.2724    -1.5347    -2.4359 H       
  65 H65            1.4538    -1.1005    -2.4436 H       
  66 H66            0.8539    -6.0156    -2.6354 H       
  67 H67            2.5801    -5.5814    -2.6431 H       
  68 H68            0.4102    -7.9381    -8.2008 H       
  69 H69            1.6097    -9.4317   -10.0963 H       
  70 H70            0.8807     4.7838    -1.4394 H       
  71 H71           -0.5120     7.0396    -0.9553 H       
  72 H72            2.0386    -3.4491    -3.7872 H       
  73 H73            0.3124    -3.8833    -3.7795 H       
  74 H74            0.3929     8.7774    -2.4539 H       
  75 H75            0.2106    -9.2825   -12.1235 H       
  76 H76           -0.6902     4.9196    -3.9146 H       
  77 H77            0.5910     5.3400    -5.9749 H       
  78 H78            1.7684     7.4814    -6.2772 H       
  79 H79            1.6700     9.1997    -4.5163 H       
  80 H80           -1.5284    -7.9809   -13.2831 H       
  81 H81           -1.8131    -5.5867   -12.7832 H       
  82 H82           -0.3593    -4.4943   -11.1229 H       
  83 H83            1.3767    -5.7970    -9.9599 H       
  84 H84           -3.3326     5.8997    -0.5341 H       
  85 H85           -2.5687     7.3603     0.1392 H       
  86 H86           -5.0904     7.4968     0.0443 H       
  87 H87           -4.2765     8.7828    -0.8854 H       
  88 H88           -4.9669     6.7611    -4.0825 H       
  89 H89           -4.1951     8.2974    -3.6085 H       
  90 H90           -2.4455     6.6263    -3.9781 H       
  91 H91           -3.2622     5.4802    -2.8874 H       
  92 H92           -9.2080     8.0033    -3.1898 H       
  93 H93          -10.3090     6.8382    -2.4161 H       
  94 H94           -8.9046     7.4655    -1.5204 H       
  95 H95           -8.3262     4.7547    -4.7795 H       
  96 H96           -9.9712     5.2552    -4.3194 H       
  97 H97           -8.8702     6.4203    -5.0930 H       
  98 H98           -8.1410     5.1277    -1.0802 H       
  99 H99           -9.5454     4.5003    -1.9760 H       
 100 H100          -7.9004     3.9999    -2.4361 H       
 101 H101           4.5643    -8.8073    -9.5459 H       
 102 H102           3.8034   -10.2658   -10.2268 H       
 103 H103           2.8728    -6.4893   -11.7688 H       
 104 H104           4.0324    -6.6488   -10.4272 H       
 105 H105           6.2117    -9.9654   -10.9315 H       
 106 H106           5.0738   -10.0160   -12.3038 H       
 107 H107           4.4583    -7.5183   -13.3236 H       
 108 H108           5.2789    -6.1802   -12.4770 H       
 109 H109           9.4424    -7.1043   -13.9393 H       
 110 H110          10.8109    -6.9591   -12.8105 H       
 111 H111           9.5726    -8.2112   -12.5515 H       
 112 H112           8.6129    -4.0902   -11.9182 H       
 113 H113          10.2505    -4.5525   -12.4407 H       
 114 H114           8.8820    -4.6977   -13.5695 H       
 115 H115           9.1950    -7.3584   -10.2336 H       
 116 H116          10.4333    -6.1063   -10.4926 H       
 117 H117           8.7957    -5.6439    -9.9702 H       
@<TRIPOS>BOND
   1    1    2 1
   2    1    3 2
   3    2    5 2
   4    3    4 1
   5    3   18 1
   6    4    5 1
   7    5    6 1
   8    6    7 1
   9    6   62 1
  10    6   63 1
  11    7   25 1
  12    7   64 1
  13    7   65 1
  14    8    9 1
  15    8   24 1
  16    8   66 1
  17    8   67 1
  18    9   10 2
  19    9   11 1
  20   10   13 1
  21   11   12 1
  22   12   13 2
  23   12   14 1
  24   14   15 am
  25   14   68 1
  26   15   16 2
  27   15   17 1
  28   17   19 1
  29   17   49 1
  30   17   69 1
  31   18   20 am
  32   18   70 1
  33   19   27 ar
  34   19   35 ar
  35   20   21 1
  36   20   22 2
  37   21   23 1
  38   21   36 1
  39   21   71 1
  40   23   26 ar
  41   23   28 ar
  42   24   25 1
  43   24   72 1
  44   24   73 1
  45   26   31 ar
  46   26   74 1
  47   27   32 ar
  48   27   75 1
  49   28   29 ar
  50   28   76 1
  51   29   30 ar
  52   29   77 1
  53   30   31 ar
  54   30   78 1
  55   31   79 1
  56   32   33 ar
  57   32   80 1
  58   33   34 ar
  59   33   81 1
  60   34   35 ar
  61   34   82 1
  62   35   83 1
  63   36   37 1
  64   36   41 1
  65   37   38 1
  66   37   84 1
  67   37   85 1
  68   38   39 1
  69   38   86 1
  70   38   87 1
  71   39   40 1
  72   39   42 am
  73   40   41 1
  74   40   88 1
  75   40   89 1
  76   41   90 1
  77   41   91 1
  78   42   43 1
  79   42   44 2
  80   43   45 1
  81   45   46 1
  82   45   47 1
  83   45   48 1
  84   46   92 1
  85   46   93 1
  86   46   94 1
  87   47   95 1
  88   47   96 1
  89   47   97 1
  90   48   98 1
  91   48   99 1
  92   48  100 1
  93   49   50 1
  94   49   51 1
  95   50   52 1
  96   50  101 1
  97   50  102 1
  98   51   54 1
  99   51  103 1
 100   51  104 1
 101   52   53 1
 102   52  105 1
 103   52  106 1
 104   53   54 1
 105   53   55 am
 106   54  107 1
 107   54  108 1
 108   55   56 2
 109   55   57 1
 110   57   58 1
 111   58   59 1
 112   58   60 1
 113   58   61 1
 114   59  109 1
 115   59  110 1
 116   59  111 1
 117   60  112 1
 118   60  113 1
 119   60  114 1
 120   61  115 1
 121   61  116 1
 122   61  117 1

#	End of record

