#	Name: ASD01914561
#	Creating user name:	WinNT
#	Creation time:	15. 06. 2019 20:03

#	Modifying user name:	WinNT
#	Modification time:	15. 06. 2019 20:03

#	Program:	/corina/corina34_cracker 3.40 0067  02.08.2006

@<TRIPOS>MOLECULE
ASD01914561
  32   34    0    0    0
SMALL
NO_CHARGES


@<TRIPOS>ATOM
   1 C1            -0.0187     1.3767    -0.1312 C.ar    
   2 C2             0.0042    -0.0151    -0.1888 C.ar    
   3 N3             1.1417    -0.6872    -0.1930 N.ar    
   4 C4             2.3143    -0.0687    -0.1430 C.ar    
   5 C5             2.3560     1.3362    -0.0840 C.ar    
   6 C6             1.1635     2.0667    -0.0781 C.ar    
   7 O7             3.5831    -0.5222    -0.1354 O.3     
   8 C8             4.4675     0.4998    -0.0747 C.2     
   9 C9             3.7756     1.6984    -0.0395 C.2     
  10 C10            5.8728     0.3654    -0.0506 C.2     
  11 C11            6.4856    -0.9768     0.0484 C.ar    
  12 C12            7.8689    -1.1258    -0.0693 C.ar    
  13 C13            5.6835    -2.0988     0.2658 C.ar    
  14 C14            6.2598    -3.3477     0.3578 C.ar    
  15 C15            7.6335    -3.4907     0.2354 C.ar    
  16 C16            8.4351    -2.3792     0.0243 C.ar    
  17 O17            6.5809     1.3556    -0.1115 O.2     
  18 N18            4.3120     2.9719     0.0237 N.pl3   
  19 F19            8.1935    -4.7167     0.3272 F       
  20 C20            1.1787     3.5723    -0.0160 C.3     
  21 O21           -1.1673    -0.6953    -0.2413 O.3     
  22 H22           -0.9596     1.9070    -0.1330 H       
  23 H23            8.4941    -0.2607    -0.2337 H       
  24 H24            4.6135    -1.9884     0.3620 H       
  25 H25            5.6403    -4.2162     0.5259 H       
  26 H26            9.5045    -2.4961    -0.0707 H       
  27 H27            5.2742     3.0922     0.0485 H       
  28 H28            3.7259     3.7446     0.0432 H       
  29 H29            1.2031     3.9775    -1.0276 H       
  30 H30            0.2822     3.9239     0.4947 H       
  31 H31            2.0617     3.9046     0.5299 H       
  32 H32           -1.4890    -0.8558    -1.1390 H       
@<TRIPOS>BOND
   1    1    2 ar
   2    1    6 ar
   3    1   22 1
   4    2    3 ar
   5    2   21 1
   6    3    4 ar
   7    4    5 ar
   8    4    7 1
   9    5    6 ar
  10    5    9 1
  11    6   20 1
  12    7    8 1
  13    8    9 2
  14    8   10 1
  15    9   18 1
  16   10   11 1
  17   10   17 2
  18   11   12 ar
  19   11   13 ar
  20   12   16 ar
  21   12   23 1
  22   13   14 ar
  23   13   24 1
  24   14   15 ar
  25   14   25 1
  26   15   16 ar
  27   15   19 1
  28   16   26 1
  29   18   27 1
  30   18   28 1
  31   20   29 1
  32   20   30 1
  33   20   31 1
  34   21   32 1

#	End of record

