#	Name: ASD01915685
#	Creating user name:	WinNT
#	Creation time:	15. 06. 2019 20:05

#	Modifying user name:	WinNT
#	Modification time:	15. 06. 2019 20:05

#	Program:	/corina/corina34_cracker 3.40 0067  02.08.2006

@<TRIPOS>MOLECULE
ASD01915685
  42   45    0    0    0
SMALL
NO_CHARGES


@<TRIPOS>ATOM
   1 C1            -0.0042     1.4685     0.2349 C.2     
   2 N2             0.0662     0.1191    -0.0301 N.pl3   
   3 C3            -1.1429    -0.6636    -0.3130 C.3     
   4 C4            -2.3280    -0.0486     0.4295 C.3     
   5 N5            -2.4044     1.3988     0.2638 N.am    
   6 C6            -1.2935     2.1742     0.2863 C.2     
   7 C7             1.2763     1.9058     0.4260 C.2     
   8 C8             2.0758     0.7649     0.2737 C.2     
   9 N9             1.2864    -0.2504     0.0108 N.2     
  10 C10            3.5774     0.7130     0.3907 C.3     
  11 O11            4.0777     2.0189     0.6848 O.3     
  12 C12            5.4192     2.1468     0.8229 C.ar    
  13 O13           -1.3590     3.3874     0.3463 O.2     
  14 N14            6.1873     1.0785     0.6819 N.ar    
  15 N15            5.9298     3.3377     1.0900 N.ar    
  16 C16            7.2356     3.4980     1.2307 C.ar    
  17 C17            8.0696     2.3998     1.0949 C.ar    
  18 C18            7.5009     1.1682     0.8099 C.ar    
  19 C19           -3.6541     2.0003     0.0771 C.ar    
  20 C20           -4.5855     2.0028     1.1072 C.ar    
  21 C21           -3.9626     2.6005    -1.1366 C.ar    
  22 C22           -5.1965     3.1936    -1.3187 C.ar    
  23 C23           -6.1256     3.1903    -0.2920 C.ar    
  24 C24           -5.8182     2.5969     0.9209 C.ar    
  25 F25           -7.3319     3.7714    -0.4720 F       
  26 C26            7.8088     4.8583     1.5345 C.3     
  27 H27           -1.3403    -0.6536    -1.3849 H       
  28 H28           -0.9977    -1.6910     0.0211 H       
  29 H29           -3.2488    -0.4952     0.0543 H       
  30 H30           -2.2354    -0.2771     1.4913 H       
  31 H31            1.6015     2.9119     0.6461 H       
  32 H32            3.8559     0.0283     1.1918 H       
  33 H33            4.0033     0.3640    -0.5500 H       
  34 H34            9.1391     2.5018     1.2047 H       
  35 H35            8.1222     0.2919     0.6980 H       
  36 H36           -4.3461     1.5401     2.0533 H       
  37 H37           -3.2379     2.6039    -1.9374 H       
  38 H38           -5.4368     3.6605    -2.2625 H       
  39 H39           -6.5444     2.5952     1.7202 H       
  40 H40            7.8617     4.9974     2.6143 H       
  41 H41            8.8094     4.9342     1.1089 H       
  42 H42            7.1699     5.6271     1.1000 H       
@<TRIPOS>BOND
   1    1    2 1
   2    1    7 2
   3    1    6 1
   4    2    3 1
   5    2    9 1
   6    3    4 1
   7    3   27 1
   8    3   28 1
   9    4    5 1
  10    4   29 1
  11    4   30 1
  12    5    6 am
  13    5   19 1
  14    6   13 2
  15    7    8 1
  16    7   31 1
  17    8    9 2
  18    8   10 1
  19   10   11 1
  20   10   32 1
  21   10   33 1
  22   11   12 1
  23   12   14 ar
  24   12   15 ar
  25   14   18 ar
  26   15   16 ar
  27   16   17 ar
  28   16   26 1
  29   17   18 ar
  30   17   34 1
  31   18   35 1
  32   19   20 ar
  33   19   21 ar
  34   20   24 ar
  35   20   36 1
  36   21   22 ar
  37   21   37 1
  38   22   23 ar
  39   22   38 1
  40   23   24 ar
  41   23   25 1
  42   24   39 1
  43   26   40 1
  44   26   41 1
  45   26   42 1

#	End of record

