#	Name: ASD01028117
#	Creating user name:	WinNT
#	Creation time:	15. 06. 2019 18:56

#	Modifying user name:	WinNT
#	Modification time:	15. 06. 2019 18:56

#	Program:	/corina/corina34_cracker 3.40 0067  02.08.2006

@<TRIPOS>MOLECULE
ASD01028117
  64   67    0    0    0
SMALL
NO_CHARGES


@<TRIPOS>ATOM
   1 C1             1.4690     0.9854     1.9372 C.3     
   2 C2             1.4673    -0.1085     0.8675 C.3     
   3 C3             0.0245    -0.4932     0.5338 C.3     
   4 N4            -4.7808    -0.4303     0.7365 N.pl3   
   5 C5            -5.9868     0.1349     1.1684 C.ar    
   6 C6            -6.2539     1.4748     0.9226 C.ar    
   7 C7            -5.2451     2.3215     0.1902 C.3     
   8 C8            -6.9218    -0.6471     1.8397 C.ar    
   9 C9            -8.1176    -0.0804     2.2663 C.ar    
  10 C10           -8.3730     1.2607     2.0209 C.ar    
  11 C11           -7.4444     2.0328     1.3485 C.ar    
  12 O12            0.0229    -1.5149    -0.4653 O.3     
  13 C13           -1.1891    -1.9731    -0.8778 C.ar    
  14 C14           -2.3286    -1.4519    -0.3346 C.ar    
  15 C15           -3.5773    -1.9230    -0.7585 C.ar    
  16 C16           -4.7877    -1.4168    -0.2286 C.ar    
  17 N17           -5.9297    -1.9163    -0.6841 N.ar    
  18 O18           -6.9101    -1.9652     2.1976 O.3     
  19 C19           -7.9314    -2.0988     3.2039 C.3     
  20 O20           -8.8581    -1.0419     2.8918 O.3     
  21 C21           -1.2552    -2.9714    -1.8602 C.ar    
  22 C22           -2.4706    -3.4513    -2.2946 C.ar    
  23 C23           -3.6519    -2.9357    -1.7467 C.ar    
  24 N24           -4.8610    -3.3690    -2.1359 N.ar    
  25 C25           -5.9505    -2.8625    -1.6088 C.ar    
  26 O26           -0.1078    -3.4702    -2.3895 O.3     
  27 C27           -0.2409    -4.4854    -3.3863 C.3     
  28 N28           -5.3530     2.0727    -1.2535 N.3     
  29 C29           -6.6449     2.5404    -1.7733 C.3     
  30 C30           -4.2373     2.6941    -1.9796 C.3     
  31 C31           -4.4244     2.4792    -3.4828 C.3     
  32 C32           -4.2060     4.1714    -1.6835 C.2     
  33 O33           -3.0729     4.8681    -1.8637 O.3     
  34 O34           -5.2007     4.7287    -1.2838 O.2     
  35 N35            2.8543     1.3547     2.2577 N.3     
  36 H36            0.9370     1.8601     1.5632 H       
  37 H37            0.9744     0.6159     2.8356 H       
  38 H38            1.9619     0.2610    -0.0308 H       
  39 H39            1.9993    -0.9833     1.2415 H       
  40 H40           -0.4701    -0.8627     1.4321 H       
  41 H41           -0.5075     0.3816     0.1598 H       
  42 H42           -3.9405    -0.1286     1.1155 H       
  43 H43           -5.4392     3.3748     0.3929 H       
  44 H44           -4.2413     2.0653     0.5291 H       
  45 H45           -9.3016     1.7016     2.3520 H       
  46 H46           -7.6476     3.0767     1.1601 H       
  47 H47           -2.2670    -0.6803     0.4187 H       
  48 H48           -8.4190    -3.0707     3.1282 H       
  49 H49           -7.5096    -1.9571     4.1989 H       
  50 H50           -2.5126    -4.2198    -3.0523 H       
  51 H51           -6.9071    -3.2342    -1.9450 H       
  52 H52            0.7482    -4.7950    -3.7239 H       
  53 H53           -0.7656    -5.3425    -2.9642 H       
  54 H54           -0.8068    -4.0930    -4.2312 H       
  55 H55           -6.7954     3.5819    -1.4890 H       
  56 H56           -6.6515     2.4559    -2.8600 H       
  57 H57           -7.4464     1.9306    -1.3565 H       
  58 H58           -3.2989     2.2398    -1.6616 H       
  59 H59           -3.5965     2.9402    -4.0216 H       
  60 H60           -4.4470     1.4107    -3.6970 H       
  61 H61           -5.3628     2.9335    -3.8008 H       
  62 H62           -3.1015     5.8131    -1.6604 H       
  63 H63            3.3536     1.6396     1.4285 H       
  64 H64            2.8823     2.0762     2.9625 H       
@<TRIPOS>BOND
   1    1    2 1
   2    1   35 1
   3    1   36 1
   4    1   37 1
   5    2    3 1
   6    2   38 1
   7    2   39 1
   8    3   12 1
   9    3   40 1
  10    3   41 1
  11    4    5 1
  12    4   16 1
  13    4   42 1
  14    5    6 ar
  15    5    8 ar
  16    6    7 1
  17    6   11 ar
  18    7   28 1
  19    7   43 1
  20    7   44 1
  21    8    9 ar
  22    8   18 1
  23    9   10 ar
  24    9   20 1
  25   10   11 ar
  26   10   45 1
  27   11   46 1
  28   12   13 1
  29   13   14 ar
  30   13   21 ar
  31   14   15 ar
  32   14   47 1
  33   15   16 ar
  34   15   23 ar
  35   16   17 ar
  36   17   25 ar
  37   18   19 1
  38   19   20 1
  39   19   48 1
  40   19   49 1
  41   21   22 ar
  42   21   26 1
  43   22   23 ar
  44   22   50 1
  45   23   24 ar
  46   24   25 ar
  47   25   51 1
  48   26   27 1
  49   27   52 1
  50   27   53 1
  51   27   54 1
  52   28   29 1
  53   28   30 1
  54   29   55 1
  55   29   56 1
  56   29   57 1
  57   30   31 1
  58   30   32 1
  59   30   58 1
  60   31   59 1
  61   31   60 1
  62   31   61 1
  63   32   33 1
  64   32   34 2
  65   33   62 1
  66   35   63 1
  67   35   64 1

#	End of record

