#	Name: ASD00230011
#	Creating user name:	WinNT
#	Creation time:	15. 06. 2019 18:33

#	Modifying user name:	WinNT
#	Modification time:	15. 06. 2019 18:33

#	Program:	/corina/corina34_cracker 3.40 0067  02.08.2006

@<TRIPOS>MOLECULE
ASD00230011
  38   39    0    0    0
SMALL
NO_CHARGES


@<TRIPOS>ATOM
   1 C1            -2.0508    -2.2885     1.5478 C.ar    
   2 C2            -1.0354    -1.8958     0.6980 C.ar    
   3 C3             0.2050    -2.5164     0.7656 C.ar    
   4 C4             0.4232    -3.5315     1.6877 C.ar    
   5 C5            -0.5934    -3.9229     2.5367 C.ar    
   6 C6            -1.8320    -3.3025     2.4685 C.ar    
   7 O7            -2.8324    -3.6883     3.3052 O.3     
   8 N8             1.2343    -2.1195    -0.0953 N.pl3   
   9 C9             2.5664    -2.7157     0.0319 C.3     
  10 C10            3.3976    -2.3761    -1.2070 C.3     
  11 C11            3.2576    -2.1587     1.2781 C.3     
  12 N12            2.4410    -4.1703     0.1520 N.am    
  13 C13            1.6407    -4.8498    -0.6931 C.2     
  14 C14            1.6111    -6.3275    -0.6560 C.ar    
  15 O15            0.9431    -4.2477    -1.4858 O.2     
  16 C16            0.7834    -7.0342    -1.5299 C.ar    
  17 C17            0.7609    -8.4130    -1.4904 C.ar    
  18 C18            1.5562    -9.0953    -0.5869 C.ar    
  19 C19            2.3789    -8.4008     0.2821 C.ar    
  20 C20            2.4151    -7.0221     0.2491 C.ar    
  21 F21            3.4427    -0.9876    -1.3720 F       
  22 F22            4.6969    -2.8691    -1.0463 F       
  23 F23            2.8131    -2.9610    -2.3354 F       
  24 F24            2.5558    -2.5610     2.4196 F       
  25 F25            4.5680    -2.6445     1.3410 F       
  26 F26            3.2808    -0.7614     1.2133 F       
  27 H27           -3.0142    -1.8029     1.4984 H       
  28 H28           -1.2061    -1.1065    -0.0191 H       
  29 H29            1.3875    -4.0149     1.7408 H       
  30 H30           -0.4239    -4.7126     3.2537 H       
  31 H31           -3.3883    -4.3968     2.9531 H       
  32 H32            1.0657    -1.4496    -0.7763 H       
  33 H33            2.9339    -4.6445     0.8399 H       
  34 H34            0.1617    -6.5027    -2.2352 H       
  35 H35            0.1209    -8.9610    -2.1661 H       
  36 H36            1.5344   -10.1747    -0.5596 H       
  37 H37            2.9972    -8.9394     0.9850 H       
  38 H38            3.0611    -6.4813     0.9249 H       
@<TRIPOS>BOND
   1    1    2 ar
   2    1    6 ar
   3    1   27 1
   4    2    3 ar
   5    2   28 1
   6    3    4 ar
   7    3    8 1
   8    4    5 ar
   9    4   29 1
  10    5    6 ar
  11    5   30 1
  12    6    7 1
  13    7   31 1
  14    8    9 1
  15    8   32 1
  16    9   10 1
  17    9   11 1
  18    9   12 1
  19   10   21 1
  20   10   22 1
  21   10   23 1
  22   11   24 1
  23   11   25 1
  24   11   26 1
  25   12   13 am
  26   12   33 1
  27   13   14 1
  28   13   15 2
  29   14   16 ar
  30   14   20 ar
  31   16   17 ar
  32   16   34 1
  33   17   18 ar
  34   17   35 1
  35   18   19 ar
  36   18   36 1
  37   19   20 ar
  38   19   37 1
  39   20   38 1

#	End of record

