#	Name: ASD04880936
#	Creating user name:	WinNT
#	Creation time:	15. 06. 2019 20:53

#	Modifying user name:	WinNT
#	Modification time:	15. 06. 2019 20:53

#	Program:	/corina/corina34_cracker 3.40 0067  02.08.2006

@<TRIPOS>MOLECULE
ASD04880936
  80   84    0    0    0
SMALL
NO_CHARGES


@<TRIPOS>ATOM
   1 C1             0.0116     1.3312    -0.1464 C.ar    
   2 C2             0.0405    -0.0511    -0.1803 C.ar    
   3 C3             1.2504    -0.7203    -0.1938 C.ar    
   4 C4             2.4346    -0.0097    -0.1734 C.ar    
   5 C5             2.4092     1.3786    -0.1392 C.ar    
   6 C6             1.1917     2.0478    -0.1258 C.ar    
   7 N7             3.6049     2.1002    -0.1180 N.3     
   8 C8             3.7411     2.8796    -1.2732 C.3     
   9 C9             5.1353     3.5307    -1.3723 C.3     
  10 N10            5.1742     4.6859    -0.5038 N.3     
  11 C11            5.7202     4.4040     0.8433 C.3     
  12 C12            3.7422     2.8616     1.1426 C.3     
  13 C13            5.8538     5.7411    -1.1070 C.ar    
  14 C14            7.2053     5.6149    -1.4075 C.ar    
  15 C15            7.8813     6.6560    -2.0041 C.ar    
  16 C16            7.2098     7.8433    -2.3092 C.ar    
  17 C17            5.8510     7.9725    -2.0085 C.ar    
  18 C18            5.1750     6.9234    -1.4146 C.ar    
  19 N19            3.8118     7.0472    -1.1160 N.am    
  20 C20            3.0427     7.9014    -1.8197 C.2     
  21 C21            1.5999     7.9676    -1.5665 C.2     
  22 O22            3.5457     8.6179    -2.6653 O.2     
  23 C23            7.9345     8.9587    -2.9473 C.2     
  24 N24            9.2449     8.8332    -3.2365 N.am    
  25 O25            7.3495     9.9912    -3.2124 O.2     
  26 C26            9.9645     9.9408    -3.8702 C.3     
  27 C27           11.4254     9.5417    -4.0879 C.3     
  28 C28           12.1769    10.6984    -4.7497 C.3     
  29 N29           13.5757    10.3162    -4.9582 N.am    
  30 C30           14.0831     9.6593    -6.1685 C.3     
  31 C31           15.4558     9.0709    -5.7735 C.3     
  32 C32           15.8707     9.9953    -4.6055 C.3     
  33 C33           14.5604    10.5274    -4.0679 C.2     
  34 O34           14.4187    11.0641    -2.9896 O.2     
  35 C35            3.7528    -0.7399    -0.1876 C.3     
  36 C36            5.2099     3.0726     1.4172 C.3     
  37 O37            0.9191     7.2332    -0.6624 O.3     
  38 C38           -0.3786     7.5612    -0.7098 C.2     
  39 C39           -0.5517     8.5162    -1.6501 C.2     
  40 C40            0.7107     8.7876    -2.2005 C.2     
  41 C41           -1.4667     6.9633     0.1444 C.3     
  42 H42           -0.9352     1.8509    -0.1404 H       
  43 H43           -0.8840    -0.6092    -0.1960 H       
  44 H44            1.2694    -1.7998    -0.2200 H       
  45 H45            1.1684     3.1272    -0.0996 H       
  46 H46            3.5822     2.2481    -2.1473 H       
  47 H47            2.9840     3.6637    -1.2626 H       
  48 H48            5.8958     2.8144    -1.0615 H       
  49 H49            5.3214     3.8406    -2.4006 H       
  50 H50            6.8080     4.3682     0.7827 H       
  51 H51            5.4328     5.2116     1.5166 H       
  52 H52            3.2458     3.8270     1.0433 H       
  53 H53            3.2937     2.2986     1.9612 H       
  54 H54            7.7263     4.6986    -1.1724 H       
  55 H55            8.9312     6.5550    -2.2360 H       
  56 H56            5.3296     8.8889    -2.2427 H       
  57 H57            3.4216     6.5181    -0.4028 H       
  58 H58            9.7115     8.0095    -3.0250 H       
  59 H59            9.5037    10.1712    -4.8308 H       
  60 H60            9.9199    10.8189    -3.2259 H       
  61 H61           11.8861     9.3113    -3.1273 H       
  62 H62           11.4700     8.6636    -4.7321 H       
  63 H63           11.7161    10.9288    -5.7103 H       
  64 H64           12.1323    11.5765    -4.1055 H       
  65 H65           13.4061     8.8628    -6.4774 H       
  66 H66           14.2016    10.3870    -6.9713 H       
  67 H67           15.3557     8.0388    -5.4375 H       
  68 H68           16.1637     9.1438    -6.5991 H       
  69 H69           16.3984     9.4279    -3.8389 H       
  70 H70           16.4904    10.8149    -4.9692 H       
  71 H71            4.0734    -0.8910    -1.2184 H       
  72 H72            4.5006    -0.1502     0.3427 H       
  73 H73            3.6380    -1.7066     0.3026 H       
  74 H74            5.7748     2.2546     0.9701 H       
  75 H75            5.3730     3.0658     2.4949 H       
  76 H76           -1.4851     8.9856    -1.9235 H       
  77 H77            0.9351     9.5045    -2.9764 H       
  78 H78           -1.0356     6.2179     0.8127 H       
  79 H79           -1.9394     7.7492     0.7334 H       
  80 H80           -2.2120     6.4903    -0.4950 H       
@<TRIPOS>BOND
   1    1    2 ar
   2    1    6 ar
   3    1   42 1
   4    2    3 ar
   5    2   43 1
   6    3    4 ar
   7    3   44 1
   8    4    5 ar
   9    4   35 1
  10    5    6 ar
  11    5    7 1
  12    6   45 1
  13    7    8 1
  14    7   12 1
  15    8    9 1
  16    8   46 1
  17    8   47 1
  18    9   10 1
  19    9   48 1
  20    9   49 1
  21   10   11 1
  22   10   13 1
  23   11   36 1
  24   11   50 1
  25   11   51 1
  26   12   36 1
  27   12   52 1
  28   12   53 1
  29   13   14 ar
  30   13   18 ar
  31   14   15 ar
  32   14   54 1
  33   15   16 ar
  34   15   55 1
  35   16   17 ar
  36   16   23 1
  37   17   18 ar
  38   17   56 1
  39   18   19 1
  40   19   20 am
  41   19   57 1
  42   20   21 1
  43   20   22 2
  44   21   37 1
  45   21   40 2
  46   23   24 am
  47   23   25 2
  48   24   26 1
  49   24   58 1
  50   26   27 1
  51   26   59 1
  52   26   60 1
  53   27   28 1
  54   27   61 1
  55   27   62 1
  56   28   29 1
  57   28   63 1
  58   28   64 1
  59   29   30 1
  60   29   33 am
  61   30   31 1
  62   30   65 1
  63   30   66 1
  64   31   32 1
  65   31   67 1
  66   31   68 1
  67   32   33 1
  68   32   69 1
  69   32   70 1
  70   33   34 2
  71   35   71 1
  72   35   72 1
  73   35   73 1
  74   36   74 1
  75   36   75 1
  76   37   38 1
  77   38   39 2
  78   38   41 1
  79   39   40 1
  80   39   76 1
  81   40   77 1
  82   41   78 1
  83   41   79 1
  84   41   80 1

#	End of record

