#	Name: ASD01912187
#	Creating user name:	WinNT
#	Creation time:	15. 06. 2019 19:59

#	Modifying user name:	WinNT
#	Modification time:	15. 06. 2019 19:59

#	Program:	/corina/corina34_cracker 3.40 0067  02.08.2006

@<TRIPOS>MOLECULE
ASD01912187
  44   47    0    0    0
SMALL
NO_CHARGES


@<TRIPOS>ATOM
   1 C1            -0.0183     1.5107     0.0189 C.3     
   2 C2            -0.0110     0.0037     0.0162 C.2     
   3 O3             0.5367    -0.7860    -0.9129 O.3     
   4 N4             0.3694    -1.9508    -0.6191 N.2     
   5 C5            -0.2899    -2.0401     0.5065 C.2     
   6 N6            -0.5352    -0.7785     0.9267 N.2     
   7 C7            -0.6897    -3.2919     1.1966 C.ar    
   8 C8            -0.3619    -4.5289     0.6460 C.ar    
   9 C9            -0.7358    -5.6900     1.2922 C.ar    
  10 C10           -1.4349    -5.6268     2.4838 C.ar    
  11 C11           -1.7629    -4.4011     3.0350 C.ar    
  12 C12           -1.3892    -3.2340     2.4003 C.ar    
  13 C13            1.4227     2.0710    -0.0076 C.3     
  14 C14            1.3276     3.2975    -0.8882 C.2     
  15 N15            0.1863     3.2697    -1.5978 N.am    
  16 C16           -0.5955     2.0631    -1.3032 C.3     
  17 O17            2.1598     4.1780    -0.9451 O.2     
  18 C18           -0.2062     4.2638    -2.5010 C.ar    
  19 C19            0.5423     5.4271    -2.6239 C.ar    
  20 C20            0.1525     6.4061    -3.5167 C.ar    
  21 C21           -0.9819     6.2292    -4.2874 C.ar    
  22 C22           -1.7293     5.0719    -4.1673 C.ar    
  23 C23           -1.3417     4.0866    -3.2806 C.ar    
  24 C24           -1.4049     7.3000    -5.2598 C.3     
  25 C25           -0.3819    -7.0289     0.6978 C.3     
  26 F26            0.8655    -7.4385     1.1808 F       
  27 F27           -1.3529    -7.9698     1.0570 F       
  28 F28           -0.3300    -6.9213    -0.6960 F       
  29 H29           -0.5703     1.8945     0.8768 H       
  30 H30            0.1834    -4.5793    -0.2849 H       
  31 H31           -1.7260    -6.5377     2.9857 H       
  32 H32           -2.3093    -4.3574     3.9656 H       
  33 H33           -1.6455    -2.2777     2.8316 H       
  34 H34            1.7434     2.3467     0.9970 H       
  35 H35            2.1075     1.3422    -0.4412 H       
  36 H36           -0.4754     1.3314    -2.1021 H       
  37 H37           -1.6482     2.3169    -1.1783 H       
  38 H38            1.4280     5.5662    -2.0218 H       
  39 H39            0.7341     7.3111    -3.6127 H       
  40 H40           -2.6148     4.9367    -4.7707 H       
  41 H41           -1.9259     3.1830    -3.1873 H       
  42 H42           -0.9393     7.1159    -6.2280 H       
  43 H43           -2.4893     7.2838    -5.3690 H       
  44 H44           -1.0919     8.2747    -4.8856 H       
@<TRIPOS>BOND
   1    1    2 1
   2    1   13 1
   3    1   16 1
   4    1   29 1
   5    2    3 1
   6    2    6 2
   7    3    4 1
   8    4    5 2
   9    5    6 1
  10    5    7 1
  11    7    8 ar
  12    7   12 ar
  13    8    9 ar
  14    8   30 1
  15    9   10 ar
  16    9   25 1
  17   10   11 ar
  18   10   31 1
  19   11   12 ar
  20   11   32 1
  21   12   33 1
  22   13   14 1
  23   13   34 1
  24   13   35 1
  25   14   15 am
  26   14   17 2
  27   15   16 1
  28   15   18 1
  29   16   36 1
  30   16   37 1
  31   18   19 ar
  32   18   23 ar
  33   19   20 ar
  34   19   38 1
  35   20   21 ar
  36   20   39 1
  37   21   22 ar
  38   21   24 1
  39   22   23 ar
  40   22   40 1
  41   23   41 1
  42   24   42 1
  43   24   43 1
  44   24   44 1
  45   25   26 1
  46   25   27 1
  47   25   28 1

#	End of record

