#	Name: ASD01813082
#	Creating user name:	WinNT
#	Creation time:	15. 06. 2019 19:29

#	Modifying user name:	WinNT
#	Modification time:	15. 06. 2019 19:29

#	Program:	/corina/corina34_cracker 3.40 0067  02.08.2006

@<TRIPOS>MOLECULE
ASD01813082
  63   67    0    0    0
SMALL
NO_CHARGES


@<TRIPOS>ATOM
   1 C1            -0.0121     1.3756    -0.0782 C.ar    
   2 C2             0.0095    -0.0041    -0.1200 C.ar    
   3 C3             1.2175    -0.6853    -0.1151 C.ar    
   4 C4             2.4011     0.0108    -0.0690 C.ar    
   5 C5             2.3981     1.4083    -0.0267 C.ar    
   6 C6             1.1748     2.0922    -0.0314 C.ar    
   7 C7             3.8489    -0.4122    -0.0517 C.3     
   8 N8             4.6362     0.8250     0.0021 N.am    
   9 C9             3.7944     1.8728     0.0163 C.2     
  10 C10            6.0987     0.9049     0.0353 C.3     
  11 C11            6.6301     0.9751    -1.3731 C.ar    
  12 O12            1.1515     3.4479     0.0091 O.3     
  13 O13            4.1374     3.0385     0.0591 O.2     
  14 C14            6.8069     2.2041    -1.9825 C.ar    
  15 C15            7.2937     2.2740    -3.2722 C.ar    
  16 C16            7.6071     1.1039    -3.9601 C.ar    
  17 C17            7.4272    -0.1312    -3.3416 C.ar    
  18 C18            6.9447    -0.1896    -2.0497 C.ar    
  19 C19            8.4761     0.1120    -6.1329 C.2     
  20 C20            8.1307     1.1730    -5.3477 C.2     
  21 C21            8.3610     2.3458    -6.0930 C.2     
  22 N22            8.8215     1.9978    -7.2653 N.2     
  23 N23            8.9028     0.6010    -7.3147 N.pl3   
  24 C24            9.3710    -0.1924    -8.4538 C.3     
  25 C25           -0.1276     4.0779    -0.0868 C.3     
  26 C26           -0.1296     5.3388     0.7385 C.ar    
  27 C27            0.9805     6.1626     0.7446 C.ar    
  28 C28            0.7255     5.2755    -2.1067 C.3     
  29 C29           -0.4170     4.4247    -1.5486 C.3     
  30 C30           -1.2435     5.6745     1.4850 C.ar    
  31 C31           -1.2454     6.8311     2.2421 C.ar    
  32 C32           -0.1330     7.6518     2.2530 C.ar    
  33 C33            0.9787     7.3193     1.5017 C.ar    
  34 C34           -0.5385     3.1358    -2.3640 C.3     
  35 H35           -0.9566     1.8993    -0.0864 H       
  36 H36           -0.9184    -0.5555    -0.1562 H       
  37 H37            1.2278    -1.7648    -0.1472 H       
  38 H38            4.0504    -1.0231     0.8282 H       
  39 H39            4.0875    -0.9690    -0.9579 H       
  40 H40            6.4014     1.7976     0.5828 H       
  41 H41            6.4997     0.0211     0.5314 H       
  42 H42            6.5632     3.1106    -1.4485 H       
  43 H43            7.4310     3.2341    -3.7473 H       
  44 H44            7.6687    -1.0414    -3.8705 H       
  45 H45            6.8086    -1.1465    -1.5678 H       
  46 H46            8.4220    -0.9305    -5.8561 H       
  47 H47            8.1870     3.3565    -5.7545 H       
  48 H48            8.5273    -0.4325    -9.1007 H       
  49 H49           10.1089     0.3797    -9.0162 H       
  50 H50            9.8254    -1.1148    -8.0919 H       
  51 H51           -0.8956     3.3994     0.2846 H       
  52 H52            1.8493     5.9024     0.1583 H       
  53 H53            1.6591     4.7165    -2.0439 H       
  54 H54            0.5193     5.5226    -3.1481 H       
  55 H55            0.8121     6.1937    -1.5257 H       
  56 H56           -1.3506     4.9837    -1.6114 H       
  57 H57           -2.1126     5.0334     1.4765 H       
  58 H58           -2.1159     7.0938     2.8247 H       
  59 H59           -0.1346     8.5556     2.8442 H       
  60 H60            1.8460     7.9627     1.5067 H       
  61 H61           -1.3525     2.5296    -1.9664 H       
  62 H62           -0.7447     3.3829    -3.4055 H       
  63 H63            0.3951     2.5767    -2.3012 H       
@<TRIPOS>BOND
   1    1    2 ar
   2    1    6 ar
   3    1   35 1
   4    2    3 ar
   5    2   36 1
   6    3    4 ar
   7    3   37 1
   8    4    7 1
   9    4    5 ar
  10    5    6 ar
  11    5    9 1
  12    6   12 1
  13    7    8 1
  14    7   38 1
  15    7   39 1
  16    8    9 am
  17    8   10 1
  18    9   13 2
  19   10   11 1
  20   10   40 1
  21   10   41 1
  22   11   14 ar
  23   11   18 ar
  24   12   25 1
  25   14   15 ar
  26   14   42 1
  27   15   16 ar
  28   15   43 1
  29   16   17 ar
  30   16   20 1
  31   17   18 ar
  32   17   44 1
  33   18   45 1
  34   19   20 2
  35   19   23 1
  36   19   46 1
  37   20   21 1
  38   21   22 2
  39   21   47 1
  40   22   23 1
  41   23   24 1
  42   24   48 1
  43   24   49 1
  44   24   50 1
  45   25   26 1
  46   25   29 1
  47   25   51 1
  48   26   30 ar
  49   26   27 ar
  50   27   33 ar
  51   27   52 1
  52   28   29 1
  53   28   53 1
  54   28   54 1
  55   28   55 1
  56   29   34 1
  57   29   56 1
  58   30   31 ar
  59   30   57 1
  60   31   32 ar
  61   31   58 1
  62   32   33 ar
  63   32   59 1
  64   33   60 1
  65   34   61 1
  66   34   62 1
  67   34   63 1

#	End of record

