#	Name: ASD01810594
#	Creating user name:	WinNT
#	Creation time:	15. 06. 2019 19:24

#	Modifying user name:	WinNT
#	Modification time:	15. 06. 2019 19:24

#	Program:	/corina/corina34_cracker 3.40 0067  02.08.2006

@<TRIPOS>MOLECULE
ASD01810594
  70   74    0    0    0
SMALL
NO_CHARGES


@<TRIPOS>ATOM
   1 C1            -0.1037     1.1666    -0.4752 C.ar    
   2 N2             0.0165    -0.0202    -1.0559 N.ar    
   3 C3             1.1833    -0.6343    -1.1076 C.ar    
   4 C4             2.3033    -0.0143    -0.5380 C.ar    
   5 C5             2.1329     1.2388     0.0652 C.ar    
   6 N6             0.9322     1.7862     0.0752 N.ar    
   7 C7             3.6274    -0.6641    -0.5722 C.2     
   8 O8             3.7573    -1.7520    -1.0996 O.2     
   9 N9             4.6930    -0.0519    -0.0189 N.am    
  10 O10           -3.6153     2.8721     0.7820 O.3     
  11 C11           -2.6490     3.7442     0.1894 C.3     
  12 C12           -1.2718     3.0769     0.2344 C.3     
  13 N13           -1.3406     1.7765    -0.4480 N.3     
  14 C14           -2.3426     0.9077     0.1862 C.3     
  15 C15           -3.7091     1.5967     0.1417 C.3     
  16 C16            5.9225    -0.7153     0.0509 C.ar    
  17 C17            7.1070     0.0013    -0.0740 C.ar    
  18 C18            8.3244    -0.6496    -0.0063 C.ar    
  19 C19            8.3721    -2.0155     0.1859 C.ar    
  20 C20            7.1884    -2.7442     0.3129 C.ar    
  21 C21            5.9599    -2.0865     0.2503 C.ar    
  22 C22            9.7022    -2.7203     0.2579 C.3     
  23 C23            7.0637     1.4929    -0.2845 C.3     
  24 C24            7.2367    -4.2076     0.5188 C.2     
  25 O25            7.8342    -4.9130    -0.2704 O.2     
  26 N26            6.6183    -4.7594     1.5816 N.am    
  27 C27            6.7314    -6.1997     1.8490 C.3     
  28 C28            7.2195    -6.3972     3.2876 C.3     
  29 C29            6.2874    -5.6514     4.2453 C.3     
  30 C30            6.3169    -4.1549     3.9264 C.3     
  31 C31            5.8231    -3.9310     2.4983 C.3     
  32 F32            4.9828    -6.1342     4.0962 F       
  33 C33            6.7448    -5.8716     5.6642 C.ar    
  34 C34            5.9861    -5.3737     6.7086 C.ar    
  35 C35            6.4085    -5.5779     8.0100 C.ar    
  36 C36            7.5984    -6.2870     8.2181 C.ar    
  37 C37            8.3058    -6.7564     7.1101 C.ar    
  38 N38            7.8592    -6.5404     5.8901 N.ar    
  39 C39            8.0811    -6.5260     9.5449 C.1     
  40 N40            8.4641    -6.7156    10.5975 N.1     
  41 H41            1.2736    -1.6005    -1.5816 H       
  42 H42            2.9716     1.7489     0.5156 H       
  43 H43            4.6073     0.8488     0.3310 H       
  44 H44           -2.9240     3.9418    -0.8466 H       
  45 H45           -2.6172     4.6823     0.7435 H       
  46 H46           -0.5426     3.7131    -0.2671 H       
  47 H47           -0.9733     2.9280     1.2721 H       
  48 H48           -2.3950    -0.0396    -0.3505 H       
  49 H49           -2.0612     0.7242     1.2231 H       
  50 H50           -4.4439     0.9818     0.6613 H       
  51 H51           -4.0149     1.7319    -0.8957 H       
  52 H52            9.2413    -0.0875    -0.1044 H       
  53 H53            5.0408    -2.6444     0.3524 H       
  54 H54           10.0849    -2.6706     1.2773 H       
  55 H55            9.5770    -3.7633    -0.0328 H       
  56 H56           10.4068    -2.2366    -0.4186 H       
  57 H57            7.0733     1.9967     0.6820 H       
  58 H58            7.9327     1.8034    -0.8647 H       
  59 H59            6.1538     1.7576    -0.8231 H       
  60 H60            5.7568    -6.6719     1.7258 H       
  61 H61            7.4457    -6.6449     1.1564 H       
  62 H62            7.2160    -7.4598     3.5303 H       
  63 H63            8.2316    -6.0046     3.3855 H       
  64 H64            5.6709    -3.6216     4.6238 H       
  65 H65            7.3375    -3.7834     4.0183 H       
  66 H66            5.9382    -2.8798     2.2339 H       
  67 H67            4.7729    -4.2144     2.4290 H       
  68 H68            5.0737    -4.8311     6.5098 H       
  69 H69            5.8358    -5.1999     8.8440 H       
  70 H70            9.2249    -7.3048     7.2546 H       
@<TRIPOS>BOND
   1    1    2 ar
   2    1    6 ar
   3    1   13 1
   4    2    3 ar
   5    3    4 ar
   6    3   41 1
   7    4    5 ar
   8    4    7 1
   9    5    6 ar
  10    5   42 1
  11    7    8 2
  12    7    9 am
  13    9   16 1
  14    9   43 1
  15   10   11 1
  16   10   15 1
  17   11   12 1
  18   11   44 1
  19   11   45 1
  20   12   13 1
  21   12   46 1
  22   12   47 1
  23   13   14 1
  24   14   15 1
  25   14   48 1
  26   14   49 1
  27   15   50 1
  28   15   51 1
  29   16   17 ar
  30   16   21 ar
  31   17   18 ar
  32   17   23 1
  33   18   19 ar
  34   18   52 1
  35   19   20 ar
  36   19   22 1
  37   20   21 ar
  38   20   24 1
  39   21   53 1
  40   22   54 1
  41   22   55 1
  42   22   56 1
  43   23   57 1
  44   23   58 1
  45   23   59 1
  46   24   25 2
  47   24   26 am
  48   26   27 1
  49   26   31 1
  50   27   28 1
  51   27   60 1
  52   27   61 1
  53   28   29 1
  54   28   62 1
  55   28   63 1
  56   29   30 1
  57   29   32 1
  58   29   33 1
  59   30   31 1
  60   30   64 1
  61   30   65 1
  62   31   66 1
  63   31   67 1
  64   33   34 ar
  65   33   38 ar
  66   34   35 ar
  67   34   68 1
  68   35   36 ar
  69   35   69 1
  70   36   37 ar
  71   36   39 1
  72   37   38 ar
  73   37   70 1
  74   39   40 3

#	End of record

