#	Name: ASD04881002
#	Creating user name:	WinNT
#	Creation time:	15. 06. 2019 20:53

#	Modifying user name:	WinNT
#	Modification time:	15. 06. 2019 20:53

#	Program:	/corina/corina34_cracker 3.40 0067  02.08.2006

@<TRIPOS>MOLECULE
ASD04881002
  83   88    0    0    0
SMALL
NO_CHARGES


@<TRIPOS>ATOM
   1 N1            -0.0985     1.4426     0.6259 N.2     
   2 C2             1.0752     1.8601     0.0787 C.2     
   3 C3             1.5254     3.2559    -0.0682 C.2     
   4 O4             2.6032     3.4968    -0.5780 O.2     
   5 C5             1.7555     0.7462    -0.3071 C.2     
   6 O6             0.9894    -0.3098     0.0104 O.3     
   7 C7            -0.1364     0.1447     0.5786 C.2     
   8 N8             0.7429     4.2653     0.3623 N.am    
   9 C9             1.2141     5.5842     0.3199 C.ar    
  10 C10            0.3257     6.6371     0.0824 C.ar    
  11 C11            0.7916     7.9459     0.0406 C.ar    
  12 C12            2.1299     8.2104     0.2328 C.ar    
  13 C13            3.0232     7.1626     0.4705 C.ar    
  14 C14            2.5562     5.8456     0.5183 C.ar    
  15 C15            4.4564     7.4460     0.6759 C.2     
  16 O16            5.2330     6.5336     0.8827 O.2     
  17 N17            4.9048     8.7163     0.6342 N.am    
  18 C18            6.3279     8.9978     0.8381 C.3     
  19 C19            6.5685    10.5057     0.7417 C.3     
  20 N20           -1.0277     6.3743    -0.1129 N.3     
  21 C21           -1.2451     5.6316    -1.3621 C.3     
  22 C22           -2.7316     5.2941    -1.4998 C.3     
  23 N23           -3.5166     6.5363    -1.4856 N.3     
  24 C24           -3.2993     7.2790    -0.2363 C.3     
  25 C25           -1.8128     7.6165    -0.0986 C.3     
  26 C26           -4.8742     6.2727    -1.6814 C.ar    
  27 C27           -5.5150     6.7334    -2.8248 C.ar    
  28 C28           -6.8571     6.4706    -3.0156 C.ar    
  29 C29           -7.5636     5.7500    -2.0697 C.ar    
  30 C30           -6.9289     5.2900    -0.9307 C.ar    
  31 C31           -5.5853     5.5444    -0.7364 C.ar    
  32 C32            8.0548    10.7997     0.9547 C.3     
  33 N33            8.2852    12.2435     0.8623 N.am    
  34 C34            8.2235    13.1665     2.0018 C.3     
  35 C35            8.0935    14.5762     1.3836 C.3     
  36 C36            8.7419    14.3726    -0.0052 C.3     
  37 C37            8.5858    12.8923    -0.2759 C.2     
  38 C38           -1.2673    -0.7142     1.0832 C.3     
  39 C39           -1.9722    -1.6200     0.0716 C.3     
  40 C40           -1.0418    -2.2269     1.1237 C.3     
  41 C41           -4.7464     7.5195    -3.8555 C.3     
  42 O42            8.7111    12.3677    -1.3622 O.2     
  43 C43           -4.1161     8.5724    -0.2627 C.3     
  44 H44            2.7263     0.7172    -0.7793 H       
  45 H45           -0.1465     4.0787     0.7015 H       
  46 H46            0.1030     8.7573    -0.1434 H       
  47 H47            2.4889     9.2284     0.1993 H       
  48 H48            3.2437     5.0341     0.7060 H       
  49 H49            4.2852     9.4442     0.4692 H       
  50 H50            6.6307     8.6439     1.8236 H       
  51 H51            6.9126     8.4869     0.0731 H       
  52 H52            6.2657    10.8596    -0.2438 H       
  53 H53            5.9838    11.0166     1.5067 H       
  54 H54           -0.9312     6.2431    -2.2081 H       
  55 H55           -0.6632     4.7101    -1.3433 H       
  56 H56           -2.8996     4.7684    -2.4398 H       
  57 H57           -3.0390     4.6600    -0.6682 H       
  58 H58           -3.6132     6.6675     0.6097 H       
  59 H59           -1.6448     8.1422     0.8414 H       
  60 H60           -1.5054     8.2506    -0.9302 H       
  61 H61           -7.3559     6.8284    -3.9042 H       
  62 H62           -8.6134     5.5465    -2.2210 H       
  63 H63           -7.4835     4.7276    -0.1941 H       
  64 H64           -5.0891     5.1811     0.1514 H       
  65 H65            8.3576    10.4457     1.9401 H       
  66 H66            8.6395    10.2888     0.1896 H       
  67 H67            7.3541    12.9442     2.6205 H       
  68 H68            9.1362    13.0967     2.5935 H       
  69 H69            7.0468    14.8647     1.2869 H       
  70 H70            8.6467    15.3111     1.9685 H       
  71 H71            8.2182    14.9586    -0.7604 H       
  72 H72            9.7977    14.6419     0.0235 H       
  73 H73           -1.8750    -0.2743     1.8740 H       
  74 H74           -3.0436    -1.7764     0.1970 H       
  75 H75           -1.6180    -1.5948    -0.9590 H       
  76 H76           -0.0755    -2.6010     0.7853 H       
  77 H77           -1.5011    -2.7825     1.9412 H       
  78 H78           -4.2468     6.8322    -4.5383 H       
  79 H79           -5.4336     8.1531    -4.4160 H       
  80 H80           -4.0026     8.1416    -3.3576 H       
  81 H81           -5.1790     8.3308    -0.2710 H       
  82 H82           -3.8853     9.1660     0.6219 H       
  83 H83           -3.8659     9.1419    -1.1578 H       
@<TRIPOS>BOND
   1    1    7 2
   2    1    2 1
   3    2    3 1
   4    2    5 2
   5    3    4 2
   6    3    8 am
   7    5    6 1
   8    5   44 1
   9    6    7 1
  10    7   38 1
  11    8    9 1
  12    8   45 1
  13    9   10 ar
  14    9   14 ar
  15   10   11 ar
  16   10   20 1
  17   11   12 ar
  18   11   46 1
  19   12   13 ar
  20   12   47 1
  21   13   14 ar
  22   13   15 1
  23   14   48 1
  24   15   16 2
  25   15   17 am
  26   17   18 1
  27   17   49 1
  28   18   19 1
  29   18   50 1
  30   18   51 1
  31   19   32 1
  32   19   52 1
  33   19   53 1
  34   20   21 1
  35   20   25 1
  36   21   22 1
  37   21   54 1
  38   21   55 1
  39   22   23 1
  40   22   56 1
  41   22   57 1
  42   23   24 1
  43   23   26 1
  44   24   25 1
  45   24   43 1
  46   24   58 1
  47   25   59 1
  48   25   60 1
  49   26   27 ar
  50   26   31 ar
  51   27   28 ar
  52   27   41 1
  53   28   29 ar
  54   28   61 1
  55   29   30 ar
  56   29   62 1
  57   30   31 ar
  58   30   63 1
  59   31   64 1
  60   32   33 1
  61   32   65 1
  62   32   66 1
  63   33   34 1
  64   33   37 am
  65   34   35 1
  66   34   67 1
  67   34   68 1
  68   35   36 1
  69   35   69 1
  70   35   70 1
  71   36   37 1
  72   36   71 1
  73   36   72 1
  74   37   42 2
  75   38   39 1
  76   38   40 1
  77   38   73 1
  78   39   40 1
  79   39   74 1
  80   39   75 1
  81   40   76 1
  82   40   77 1
  83   41   78 1
  84   41   79 1
  85   41   80 1
  86   43   81 1
  87   43   82 1
  88   43   83 1

#	End of record

