#	Name: ASD08150394
#	Creating user name:	WinNT
#	Creation time:	15. 06. 2019 21:15

#	Modifying user name:	WinNT
#	Modification time:	15. 06. 2019 21:15

#	Program:	/corina/corina34_cracker 3.40 0067  02.08.2006

@<TRIPOS>MOLECULE
ASD08150394
  36   39    0    0    0
SMALL
NO_CHARGES


@<TRIPOS>ATOM
   1 N1            -0.0163     1.3482     0.0095 N.am    
   2 C2             0.0030    -0.0039    -0.0102 C.2     
   3 C3             1.1741    -0.6999    -0.3677 C.2     
   4 C4             2.3191    -0.0078    -0.5928 C.2     
   5 C5             2.3260     1.3944    -0.3950 C.ar    
   6 C6             3.4864     2.1471    -0.6574 C.ar    
   7 N7             3.5205     3.4326    -0.4334 N.ar    
   8 C8             2.4869     4.0822     0.1218 C.ar    
   9 C9             1.2984     3.3846     0.4689 C.ar    
  10 C10            1.1476     2.0535     0.0138 C.ar    
  11 C11            0.3577     4.0409     1.2657 C.ar    
  12 C12            0.5196     5.3819     1.5789 C.ar    
  13 C13            1.6215     6.0956     1.0900 C.ar    
  14 C14            2.5859     5.4601     0.3735 C.ar    
  15 O15           -1.0046    -0.6207     0.2861 O.2     
  16 C16           -0.4810     6.0636     2.4358 C.ar    
  17 C17           -1.3271     1.9984    -0.0808 C.3     
  18 C18           -0.3403     7.4142     2.7657 C.ar    
  19 N19           -1.2530     7.9860     3.5312 N.ar    
  20 C20           -2.2900     7.2960     3.9839 C.ar    
  21 N21           -2.4580     6.0140     3.6929 N.ar    
  22 C22           -1.5913     5.3730     2.9288 C.ar    
  23 N23           -3.2233     7.9318     4.7832 N.pl3   
  24 H24            1.1617    -1.7744    -0.4623 H       
  25 H25            3.2123    -0.5203    -0.9199 H       
  26 H26            4.3621     1.6516    -1.0501 H       
  27 H27           -0.4794     3.5146     1.7000 H       
  28 H28            1.7054     7.1536     1.2834 H       
  29 H29            3.4317     6.0162    -0.0033 H       
  30 H30           -1.7652     2.0727     0.9145 H       
  31 H31           -1.2091     2.9971    -0.5013 H       
  32 H32           -1.9817     1.4089    -0.7228 H       
  33 H33            0.5024     7.9824     2.4006 H       
  34 H34           -1.7344     4.3282     2.6957 H       
  35 H35           -3.1135     8.8698     5.0048 H       
  36 H36           -3.9875     7.4397     5.1219 H       
@<TRIPOS>BOND
   1    1    2 am
   2    1   10 1
   3    1   17 1
   4    2    3 1
   5    2   15 2
   6    3    4 2
   7    3   24 1
   8    4    5 1
   9    4   25 1
  10    5    6 ar
  11    5   10 ar
  12    6    7 ar
  13    6   26 1
  14    7    8 ar
  15    8    9 ar
  16    8   14 ar
  17    9   10 ar
  18    9   11 ar
  19   11   12 ar
  20   11   27 1
  21   12   13 ar
  22   12   16 1
  23   13   14 ar
  24   13   28 1
  25   14   29 1
  26   16   18 ar
  27   16   22 ar
  28   17   30 1
  29   17   31 1
  30   17   32 1
  31   18   19 ar
  32   18   33 1
  33   19   20 ar
  34   20   21 ar
  35   20   23 1
  36   21   22 ar
  37   22   34 1
  38   23   35 1
  39   23   36 1

#	End of record

