#	Name: ASD01230175
#	Creating user name:	WinNT
#	Creation time:	15. 06. 2019 19:11

#	Modifying user name:	WinNT
#	Modification time:	15. 06. 2019 19:11

#	Program:	/corina/corina34_cracker 3.40 0067  02.08.2006

@<TRIPOS>MOLECULE
ASD01230175
  49   51    0    0    0
SMALL
NO_CHARGES


@<TRIPOS>ATOM
   1 S1            -0.0203     1.6432     0.0111 S.o2    
   2 N2             0.0021    -0.0041     0.0020 N.am    
   3 C3             1.0582    -0.7115     0.0766 C.2     
   4 N4             2.3239    -0.2014     0.2156 N.pl3   
   5 C5             2.5547     1.1284     0.7685 C.3     
   6 C6             1.7187     2.1517    -0.0028 C.3     
   7 C7             0.9691    -2.2282     0.0263 C.3     
   8 C8             2.0432    -2.7791     0.9676 C.3     
   9 C9             3.4382    -2.3754     0.5096 C.3     
  10 C10            3.4443    -1.0396    -0.2239 C.3     
  11 C11           -0.4150    -2.6840     0.4924 C.3     
  12 O12           -0.6472     1.9881    -1.2166 O.2     
  13 O13           -0.6237     1.9749     1.2541 O.2     
  14 C14           -3.5815    -1.8348     0.8097 C.ar    
  15 C15           -2.8376    -2.6374    -0.0349 C.ar    
  16 C16           -1.4743    -2.1884    -0.4941 C.3     
  17 C17           -4.8320    -2.2466     1.2308 C.ar    
  18 C18           -5.3387    -3.4611     0.8074 C.ar    
  19 C19           -4.5946    -4.2639    -0.0368 C.ar    
  20 C20           -3.3440    -3.8521    -0.4580 C.ar    
  21 C21           -6.7016    -3.9105     1.2673 C.3     
  22 C22           -7.6100    -4.1091     0.0523 C.3     
  23 C23           -6.5730    -5.2310     2.0292 C.3     
  24 H24            2.2653     1.1405     1.8193 H       
  25 H25            3.6113     1.3809     0.6793 H       
  26 H26            2.0726     2.2083    -1.0322 H       
  27 H27            1.8152     3.1296     0.4690 H       
  28 H28            1.1525    -2.5769    -0.9900 H       
  29 H29            1.8709    -2.3915     1.9717 H       
  30 H30            1.9753    -3.8668     0.9892 H       
  31 H31            4.0887    -2.3026     1.3812 H       
  32 H32            3.8279    -3.1455    -0.1561 H       
  33 H33            3.3602    -1.2183    -1.2958 H       
  34 H34            4.3816    -0.5221    -0.0194 H       
  35 H35           -0.4426    -3.7727     0.5386 H       
  36 H36           -0.6189    -2.2732     1.4812 H       
  37 H37           -3.1837    -0.8880     1.1440 H       
  38 H38           -1.4467    -1.0997    -0.5402 H       
  39 H39           -1.2704    -2.5993    -1.4829 H       
  40 H40           -5.4131    -1.6197     1.8909 H       
  41 H41           -4.9901    -5.2130    -0.3670 H       
  42 H42           -2.7629    -4.4791    -1.1179 H       
  43 H43           -7.1319    -3.1532     1.9227 H       
  44 H44           -7.1798    -4.8663    -0.6031 H       
  45 H45           -8.5958    -4.4342     0.3850 H       
  46 H46           -7.7017    -3.1683    -0.4905 H       
  47 H47           -5.9258    -5.0895     2.8948 H       
  48 H48           -7.5588    -5.5561     2.3619 H       
  49 H49           -6.1427    -5.9882     1.3738 H       
@<TRIPOS>BOND
   1    1    2 am
   2    1    6 1
   3    1   12 2
   4    1   13 2
   5    2    3 2
   6    3    4 1
   7    3    7 1
   8    4    5 1
   9    4   10 1
  10    5    6 1
  11    5   24 1
  12    5   25 1
  13    6   26 1
  14    6   27 1
  15    7    8 1
  16    7   11 1
  17    7   28 1
  18    8    9 1
  19    8   29 1
  20    8   30 1
  21    9   10 1
  22    9   31 1
  23    9   32 1
  24   10   33 1
  25   10   34 1
  26   11   16 1
  27   11   35 1
  28   11   36 1
  29   14   15 ar
  30   14   17 ar
  31   14   37 1
  32   15   16 1
  33   15   20 ar
  34   16   38 1
  35   16   39 1
  36   17   18 ar
  37   17   40 1
  38   18   19 ar
  39   18   21 1
  40   19   20 ar
  41   19   41 1
  42   20   42 1
  43   21   22 1
  44   21   23 1
  45   21   43 1
  46   22   44 1
  47   22   45 1
  48   22   46 1
  49   23   47 1
  50   23   48 1
  51   23   49 1

#	End of record

