#	Name: ASD09116035
#	Creating user name:	WinNT
#	Creation time:	15. 06. 2019 21:20

#	Modifying user name:	WinNT
#	Modification time:	15. 06. 2019 21:20

#	Program:	/corina/corina34_cracker 3.40 0067  02.08.2006

@<TRIPOS>MOLECULE
ASD09116035
  77   83    0    0    0
SMALL
NO_CHARGES


@<TRIPOS>ATOM
   1 C1             0.0409     1.1931    -0.2660 C.ar    
   2 N2             0.0315    -0.1190    -0.0522 N.ar    
   3 C3            -1.1134    -0.7761     0.0306 C.ar    
   4 N4            -2.2768    -0.1614    -0.0979 N.ar    
   5 C5            -2.3450     1.1482    -0.3164 C.ar    
   6 C6            -1.1782     1.8723    -0.3979 C.ar    
   7 N7            -1.0929    -2.1498     0.2584 N.pl3   
   8 N8            -2.2039    -3.0010     0.3736 N.2     
   9 C9            -1.7408    -4.2094     0.5842 C.2     
  10 N10           -0.4033    -4.1691     0.6084 N.2     
  11 C11            0.0072    -2.9353     0.4077 C.2     
  12 N12           -2.5182    -5.3543     0.7562 N.pl3   
  13 C13           -1.9030    -6.6060     0.8812 C.ar    
  14 C14           -2.4935    -7.5955     1.6563 C.ar    
  15 C15           -0.7054    -6.8596     0.2254 C.ar    
  16 C16           -0.0984    -8.0955     0.3491 C.ar    
  17 C17           -0.6876    -9.0836     1.1300 C.ar    
  18 C18           -1.8872    -8.8303     1.7806 C.ar    
  19 N19            1.3213    -2.5117     0.3656 N.pl3   
  20 F20            1.0664    -8.3432    -0.2889 F       
  21 N21           -0.0732   -10.3369     1.2557 N.3     
  22 C22            0.2498   -10.6263     2.6586 C.3     
  23 C23            1.1217   -10.4247     0.4066 C.3     
  24 C24            1.6813   -11.8482     0.4569 C.3     
  25 C25            2.0337   -12.2020     1.9043 C.3     
  26 C26            0.7835   -12.0558     2.7761 C.3     
  27 N27            2.5168   -13.5878     1.9673 N.3     
  28 C28            3.7777   -13.7424     1.2188 C.3     
  29 C29            4.8263   -14.3058     2.2009 C.3     
  30 C30            3.9550   -14.9719     3.2982 C.3     
  31 C31            2.7458   -14.0061     3.3667 C.3     
  32 C32            1.3248     1.9299    -0.3577 C.ar    
  33 C33           -3.7024     1.7797    -0.4673 C.3     
  34 C34           -3.6123     3.2928    -0.2745 C.3     
  35 C35           -2.4999     3.8339    -1.1800 C.3     
  36 C36           -1.1552     3.3580    -0.6267 C.3     
  37 C37            1.4857     3.1410     0.3131 C.ar    
  38 C38            2.6826     3.8223     0.2242 C.ar    
  39 C39            3.7214     3.3054    -0.5288 C.ar    
  40 C40            3.5672     2.1040    -1.1970 C.ar    
  41 C41            2.3769     1.4110    -1.1103 C.ar    
  42 H42           -3.4850    -5.2837     0.7892 H       
  43 H43           -3.4271    -7.3992     2.1626 H       
  44 H44           -0.2486    -6.0917    -0.3813 H       
  45 H45           -2.3446    -9.5977     2.3875 H       
  46 H46            2.0409    -3.1499     0.4911 H       
  47 H47            1.5246    -1.5760     0.2105 H       
  48 H48            1.0079    -9.9257     3.0087 H       
  49 H49           -0.6487   -10.5229     3.2670 H       
  50 H50            0.8564   -10.1748    -0.6207 H       
  51 H51            1.8757    -9.7250     0.7673 H       
  52 H52            0.9327   -12.5469     0.0834 H       
  53 H53            2.5772   -11.9090    -0.1611 H       
  54 H54            2.8104   -11.5277     2.2654 H       
  55 H55            1.0378   -12.2650     3.8152 H       
  56 H56            0.0207   -12.7578     2.4391 H       
  57 H57            3.6347   -14.4365     0.3907 H       
  58 H58            4.1060   -12.7739     0.8413 H       
  59 H59            5.4575   -15.0454     1.7083 H       
  60 H60            5.4298   -13.5023     2.6231 H       
  61 H61            3.6404   -15.9703     2.9944 H       
  62 H62            4.4837   -15.0038     4.2508 H       
  63 H63            2.9850   -13.1421     3.9867 H       
  64 H64            1.8689   -14.5229     3.7566 H       
  65 H65           -4.0906     1.5658    -1.4631 H       
  66 H66           -4.3792     1.3612     0.2776 H       
  67 H67           -4.5620     3.7536    -0.5460 H       
  68 H68           -3.3782     3.5160     0.7664 H       
  69 H69           -2.6370     3.4574    -2.1936 H       
  70 H70           -2.5282     4.9235    -1.1838 H       
  71 H71           -0.9527     3.8672     0.3156 H       
  72 H72           -0.3666     3.5988    -1.3397 H       
  73 H73            0.6752     3.5458     0.9010 H       
  74 H74            2.8083     4.7611     0.7432 H       
  75 H75            4.6563     3.8419    -0.5956 H       
  76 H76            4.3814     1.7054    -1.7841 H       
  77 H77            2.2577     0.4730    -1.6321 H       
@<TRIPOS>BOND
   1    1    2 ar
   2    1   32 1
   3    1    6 ar
   4    2    3 ar
   5    3    4 ar
   6    3    7 1
   7    4    5 ar
   8    5    6 ar
   9    5   33 1
  10    6   36 1
  11    7    8 1
  12    7   11 1
  13    8    9 2
  14    9   10 1
  15    9   12 1
  16   10   11 2
  17   11   19 1
  18   12   13 1
  19   12   42 1
  20   13   14 ar
  21   13   15 ar
  22   14   18 ar
  23   14   43 1
  24   15   16 ar
  25   15   44 1
  26   16   17 ar
  27   16   20 1
  28   17   18 ar
  29   17   21 1
  30   18   45 1
  31   19   46 1
  32   19   47 1
  33   21   22 1
  34   21   23 1
  35   22   26 1
  36   22   48 1
  37   22   49 1
  38   23   24 1
  39   23   50 1
  40   23   51 1
  41   24   25 1
  42   24   52 1
  43   24   53 1
  44   25   26 1
  45   25   27 1
  46   25   54 1
  47   26   55 1
  48   26   56 1
  49   27   28 1
  50   27   31 1
  51   28   29 1
  52   28   57 1
  53   28   58 1
  54   29   30 1
  55   29   59 1
  56   29   60 1
  57   30   31 1
  58   30   61 1
  59   30   62 1
  60   31   63 1
  61   31   64 1
  62   32   37 ar
  63   32   41 ar
  64   33   34 1
  65   33   65 1
  66   33   66 1
  67   34   35 1
  68   34   67 1
  69   34   68 1
  70   35   36 1
  71   35   69 1
  72   35   70 1
  73   36   71 1
  74   36   72 1
  75   37   38 ar
  76   37   73 1
  77   38   39 ar
  78   38   74 1
  79   39   40 ar
  80   39   75 1
  81   40   41 ar
  82   40   76 1
  83   41   77 1

#	End of record

