#	Name: ASD01920037
#	Creating user name:	WinNT
#	Creation time:	15. 06. 2019 20:11

#	Modifying user name:	WinNT
#	Modification time:	15. 06. 2019 20:11

#	Program:	/corina/corina34_cracker 3.40 0067  02.08.2006

@<TRIPOS>MOLECULE
ASD01920037
  48   50    0    0    0
SMALL
NO_CHARGES


@<TRIPOS>ATOM
   1 N1             0.2908     0.8563    -1.0834 N.pl3   
   2 C2             0.2118    -0.5057    -0.9820 C.2     
   3 C3            -1.0748    -0.8627    -0.8369 C.2     
   4 C4            -1.8557     0.3820    -0.8497 C.2     
   5 C5            -0.9379     1.4045    -1.0003 C.2     
   6 C6             1.3819    -1.4543    -1.0269 C.3     
   7 C7            -1.2565     2.8758    -1.0697 C.3     
   8 C8             1.4737     1.5751    -1.2437 C.2     
   9 C9            -3.3086     0.5129    -0.7227 C.2     
  10 O10           -3.8236     1.6113    -0.7507 O.2     
  11 C11           -4.1642    -0.7166    -0.5572 C.3     
  12 S12           -5.9064    -0.2279    -0.4280 S.3     
  13 C13           -6.7380    -1.7702    -0.2431 C.ar    
  14 C14           -8.1209    -1.8027    -0.1113 C.ar    
  15 C15           -8.7720    -3.0112     0.0336 C.ar    
  16 C16           -8.0451    -4.1944     0.0482 C.ar    
  17 C17           -6.6631    -4.1624    -0.0834 C.ar    
  18 C18           -6.0117    -2.9547    -0.2346 C.ar    
  19 N19           -8.7065    -5.4211     0.1963 N.am    
  20 C20           -9.9415    -5.5871    -0.3173 C.2     
  21 O21          -10.4432    -4.7087    -0.9865 O.2     
  22 C22          -10.6991    -6.8642    -0.0600 C.3     
  23 S23            1.9129     2.9538    -0.3330 S.3     
  24 N24            2.4034     1.2925    -2.1010 N.2     
  25 C25            3.4606     2.0806    -2.1179 C.2     
  26 C26            3.4241     3.0776    -1.2301 C.2     
  27 C27            4.6172     1.8719    -3.0612 C.3     
  28 H28           -1.4595    -1.8664    -0.7320 H       
  29 H29            1.7602    -1.6126    -0.0170 H       
  30 H30            1.0613    -2.4070    -1.4483 H       
  31 H31            2.1706    -1.0294    -1.6478 H       
  32 H32           -1.3340     3.2788    -0.0599 H       
  33 H33           -0.4631     3.3943    -1.6080 H       
  34 H34           -2.2029     3.0184    -1.5914 H       
  35 H35           -4.0331    -1.3694    -1.4202 H       
  36 H36           -3.8675    -1.2466     0.3478 H       
  37 H37           -8.6862    -0.8825    -0.1219 H       
  38 H38           -9.8468    -3.0366     0.1361 H       
  39 H39           -6.0982    -5.0828    -0.0717 H       
  40 H40           -4.9369    -2.9300    -0.3373 H       
  41 H41           -8.2755    -6.1506     0.6684 H       
  42 H42          -10.8407    -6.9928     1.0131 H       
  43 H43          -11.6708    -6.8155    -0.5514 H       
  44 H44          -10.1338    -7.7080    -0.4556 H       
  45 H45            4.1878     3.8276    -1.0863 H       
  46 H46            4.4370     2.4224    -3.9845 H       
  47 H47            5.5348     2.2325    -2.5964 H       
  48 H48            4.7164     0.8097    -3.2850 H       
@<TRIPOS>BOND
   1    1    2 1
   2    1    8 1
   3    1    5 1
   4    2    3 2
   5    2    6 1
   6    3    4 1
   7    3   28 1
   8    4    5 2
   9    4    9 1
  10    5    7 1
  11    6   29 1
  12    6   30 1
  13    6   31 1
  14    7   32 1
  15    7   33 1
  16    7   34 1
  17    8   24 2
  18    8   23 1
  19    9   10 2
  20    9   11 1
  21   11   12 1
  22   11   35 1
  23   11   36 1
  24   12   13 1
  25   13   14 ar
  26   13   18 ar
  27   14   15 ar
  28   14   37 1
  29   15   16 ar
  30   15   38 1
  31   16   17 ar
  32   16   19 1
  33   17   18 ar
  34   17   39 1
  35   18   40 1
  36   19   20 am
  37   19   41 1
  38   20   21 2
  39   20   22 1
  40   22   42 1
  41   22   43 1
  42   22   44 1
  43   23   26 1
  44   24   25 1
  45   25   26 2
  46   25   27 1
  47   26   45 1
  48   27   46 1
  49   27   47 1
  50   27   48 1

#	End of record

