#	Name: ASD08178179
#	Creating user name:	WinNT
#	Creation time:	15. 06. 2019 21:18

#	Modifying user name:	WinNT
#	Modification time:	15. 06. 2019 21:18

#	Program:	/corina/corina34_cracker 3.40 0067  02.08.2006

@<TRIPOS>MOLECULE
ASD08178179
  76   80    0    0    0
SMALL
NO_CHARGES


@<TRIPOS>ATOM
   1 C1            -0.0155     1.2947     0.0092 C.2     
   2 N2             0.0021    -0.0041     0.0020 N.2     
   3 N3            -1.1080    -0.6053     0.0094 N.2     
   4 C4            -2.1692     0.1372     0.0235 C.2     
   5 S5            -1.6454     1.8216     0.0350 S.3     
   6 C6            -3.5951    -0.3504     0.0340 C.3     
   7 C7            -4.0644    -0.5229     1.4800 C.3     
   8 S8            -5.7808    -1.1098     1.4927 S.3     
   9 C9            -6.1506    -1.2511     3.2630 C.3     
  10 C10           -7.5659    -1.7364     3.4433 C.2     
  11 N11           -7.9450    -2.9721     3.5268 N.2     
  12 N12           -9.1820    -3.1745     3.6774 N.2     
  13 C13           -9.9603    -2.1362     3.7349 C.2     
  14 S14           -9.0029    -0.7234     3.5861 S.3     
  15 N15          -11.3414    -2.1663     3.8963 N.am    
  16 C16          -11.9812    -3.3472     4.0085 C.2     
  17 C17          -13.4776    -3.3798     4.1834 C.3     
  18 O18          -11.3526    -4.3836     3.9688 O.2     
  19 C19          -13.9407    -4.8104     4.2831 C.ar    
  20 C20          -14.0148    -5.4281     5.5182 C.ar    
  21 C21          -14.2961    -5.5018     3.1415 C.ar    
  22 C22          -14.7224    -6.8190     3.2339 C.ar    
  23 C23          -14.7904    -7.4381     4.4734 C.ar    
  24 C24          -14.4388    -6.7405     5.6129 C.ar    
  25 N25            1.1034     2.1206     0.0029 N.am    
  26 C26            2.3386     1.5818    -0.0123 C.2     
  27 C27            3.5511     2.4767    -0.0190 C.3     
  28 O28            2.4745     0.3766    -0.0205 O.2     
  29 C29            4.7989     1.6319    -0.0361 C.ar    
  30 C30            5.3595     1.2513    -1.2410 C.ar    
  31 C31            6.5041     0.4764    -1.2567 C.ar    
  32 C32            7.0884     0.0825    -0.0674 C.ar    
  33 C33            6.5283     0.4638     1.1375 C.ar    
  34 C34            5.3862     1.2424     1.1531 C.ar    
  35 O35          -15.0730    -7.5012     2.1121 O.3     
  36 C36          -15.5022    -8.8535     2.2828 C.3     
  37 C37          -15.8524    -9.4534     0.9196 C.3     
  38 N38          -14.6404    -9.5317     0.0932 N.3     
  39 C39          -14.8844   -10.3148    -1.1269 C.3     
  40 C40          -13.6165   -10.3207    -1.9851 C.3     
  41 O41          -12.5288   -10.8412    -1.2161 O.3     
  42 C42          -12.2631   -10.1021    -0.0209 C.3     
  43 C43          -13.5173   -10.0940     0.8571 C.3     
  44 H44           -4.2315     0.3769    -0.4702 H       
  45 H45           -3.6557    -1.3073    -0.4843 H       
  46 H46           -3.4280    -1.2502     1.9842 H       
  47 H47           -4.0038     0.4340     1.9984 H       
  48 H48           -5.4621    -1.9601     3.7226 H       
  49 H49           -6.0378    -0.2759     3.7367 H       
  50 H50          -11.8441    -1.3373     3.9281 H       
  51 H51          -13.7487    -2.8458     5.0942 H       
  52 H52          -13.9540    -2.9025     3.3270 H       
  53 H53          -13.7407    -4.8844     6.4102 H       
  54 H54          -14.2426    -5.0175     2.1776 H       
  55 H55          -15.1222    -8.4631     4.5480 H       
  56 H56          -14.4916    -7.2220     6.5782 H       
  57 H57            0.9948     3.0845     0.0095 H       
  58 H58            3.5296     3.1110    -0.9053 H       
  59 H59            3.5470     3.1008     0.8746 H       
  60 H60            4.9030     1.5591    -2.1701 H       
  61 H61            6.9417     0.1785    -2.1980 H       
  62 H62            7.9822    -0.5236    -0.0796 H       
  63 H63            6.9846     0.1558     2.0666 H       
  64 H64            4.9486     1.5404     2.0945 H       
  65 H65          -14.7011    -9.4340     2.7402 H       
  66 H66          -16.3814    -8.8772     2.9268 H       
  67 H67          -16.2634   -10.4535     1.0574 H       
  68 H68          -16.5901    -8.8225     0.4237 H       
  69 H69          -15.1457   -11.3379    -0.8566 H       
  70 H70          -15.7028    -9.8660    -1.6898 H       
  71 H71          -13.7742   -10.9471    -2.8630 H       
  72 H72          -13.3855    -9.3031    -2.3000 H       
  73 H73          -11.4420   -10.5704     0.5217 H       
  74 H74          -11.9927    -9.0781    -0.2787 H       
  75 H75          -13.3378    -9.4841     1.7425 H       
  76 H76          -13.7567   -11.1136     1.1592 H       
@<TRIPOS>BOND
   1    1    2 2
   2    1   25 1
   3    1    5 1
   4    2    3 1
   5    3    4 2
   6    4    5 1
   7    4    6 1
   8    6    7 1
   9    6   44 1
  10    6   45 1
  11    7    8 1
  12    7   46 1
  13    7   47 1
  14    8    9 1
  15    9   10 1
  16    9   48 1
  17    9   49 1
  18   10   11 2
  19   10   14 1
  20   11   12 1
  21   12   13 2
  22   13   14 1
  23   13   15 1
  24   15   16 am
  25   15   50 1
  26   16   17 1
  27   16   18 2
  28   17   19 1
  29   17   51 1
  30   17   52 1
  31   19   20 ar
  32   19   21 ar
  33   20   24 ar
  34   20   53 1
  35   21   22 ar
  36   21   54 1
  37   22   23 ar
  38   22   35 1
  39   23   24 ar
  40   23   55 1
  41   24   56 1
  42   25   26 am
  43   25   57 1
  44   26   27 1
  45   26   28 2
  46   27   29 1
  47   27   58 1
  48   27   59 1
  49   29   30 ar
  50   29   34 ar
  51   30   31 ar
  52   30   60 1
  53   31   32 ar
  54   31   61 1
  55   32   33 ar
  56   32   62 1
  57   33   34 ar
  58   33   63 1
  59   34   64 1
  60   35   36 1
  61   36   37 1
  62   36   65 1
  63   36   66 1
  64   37   38 1
  65   37   67 1
  66   37   68 1
  67   38   39 1
  68   38   43 1
  69   39   40 1
  70   39   69 1
  71   39   70 1
  72   40   41 1
  73   40   71 1
  74   40   72 1
  75   41   42 1
  76   42   43 1
  77   42   73 1
  78   42   74 1
  79   43   75 1
  80   43   76 1

#	End of record

