#	Name: ASD03430932
#	Creating user name:	WinNT
#	Creation time:	15. 06. 2019 20:41

#	Modifying user name:	WinNT
#	Modification time:	15. 06. 2019 20:41

#	Program:	/corina/corina34_cracker 3.40 0067  02.08.2006

@<TRIPOS>MOLECULE
ASD03430932
  51   56    0    0    0
SMALL
NO_CHARGES


@<TRIPOS>ATOM
   1 O1            -0.0175     1.4360     0.0099 O.3     
   2 C2             0.0021    -0.0041     0.0020 C.3     
   3 C3             1.3440    -0.3137    -0.6764 C.3     
   4 C4             2.1596     0.9222    -0.4077 C.ar    
   5 C5             1.2630     1.9055     0.0002 C.ar    
   6 C6             1.7459     3.1706     0.3241 C.ar    
   7 C7             3.0985     3.4416     0.2345 C.ar    
   8 C8             3.9837     2.4537    -0.1738 C.ar    
   9 C9             3.5105     1.1929    -0.4937 C.ar    
  10 N10            1.6577    -1.8115    -2.3743 N.am    
  11 C11            1.1747    -0.5743    -2.1462 C.2     
  12 C12            1.9796    -1.5539    -0.1231 C.ar    
  13 C13            2.3855    -1.9348     1.1360 C.ar    
  14 C14            2.9534    -3.1812     1.3340 C.ar    
  15 C15            3.1114    -4.0435     0.2646 C.ar    
  16 C16            2.7066    -3.6663    -0.9994 C.ar    
  17 C17            2.1365    -2.4133    -1.2081 C.ar    
  18 O18            0.6965     0.1804    -2.9664 O.2     
  19 C19            1.6776    -2.4514    -3.6920 C.3     
  20 O20            5.3170     2.7355    -0.2594 O.3     
  21 O21            3.5709     4.6840     0.5450 O.3     
  22 C22            2.9722    -2.1232    -4.3903 C.2     
  23 C23            4.1088    -2.8388    -4.3172 C.2     
  24 C24            5.0635    -2.1744    -5.1209 C.2     
  25 C25            4.4532    -1.0925    -5.6371 C.2     
  26 O26            3.1850    -1.0698    -5.1958 O.3     
  27 C27            5.9871     2.9714     0.9809 C.3     
  28 C28            5.8217     4.4190     1.4160 C.3     
  29 C29            4.3744     4.7698     1.7232 C.3     
  30 C30            5.0839    -0.0807    -6.5588 C.3     
  31 F31            4.8982    -0.4800    -7.8867 F       
  32 F32            4.4860     1.1682    -6.3594 F       
  33 F33            6.4531     0.0089    -6.2859 F       
  34 H34           -0.0177    -0.3972     1.0185 H       
  35 H35           -0.8281    -0.3993    -0.5834 H       
  36 H36            1.0621     3.9422     0.6458 H       
  37 H37            4.1973     0.4218    -0.8101 H       
  38 H38            2.2609    -1.2601     1.9700 H       
  39 H39            3.2728    -3.4796     2.3216 H       
  40 H40            3.5539    -5.0164     0.4193 H       
  41 H41            2.8328    -4.3452    -1.8298 H       
  42 H42            1.5928    -3.5315    -3.5728 H       
  43 H43            0.8410    -2.0847    -4.2867 H       
  44 H44            4.2627    -3.7464    -3.7524 H       
  45 H45            6.0867    -2.4772    -5.2880 H       
  46 H46            5.5682     2.3169     1.7453 H       
  47 H47            7.0481     2.7511     0.8631 H       
  48 H48            6.4236     4.5903     2.3085 H       
  49 H49            6.1815     5.0703     0.6195 H       
  50 H50            4.3271     5.7853     2.1164 H       
  51 H51            3.9886     4.0777     2.4717 H       
@<TRIPOS>BOND
   1    1    2 1
   2    1    5 1
   3    2    3 1
   4    2   34 1
   5    2   35 1
   6    3    4 1
   7    3   11 1
   8    3   12 1
   9    4    5 ar
  10    4    9 ar
  11    5    6 ar
  12    6    7 ar
  13    6   36 1
  14    7    8 ar
  15    7   21 1
  16    8    9 ar
  17    8   20 1
  18    9   37 1
  19   10   11 am
  20   10   17 1
  21   10   19 1
  22   11   18 2
  23   12   13 ar
  24   12   17 ar
  25   13   14 ar
  26   13   38 1
  27   14   15 ar
  28   14   39 1
  29   15   16 ar
  30   15   40 1
  31   16   17 ar
  32   16   41 1
  33   19   22 1
  34   19   42 1
  35   19   43 1
  36   20   27 1
  37   21   29 1
  38   22   23 2
  39   22   26 1
  40   23   24 1
  41   23   44 1
  42   24   25 2
  43   24   45 1
  44   25   26 1
  45   25   30 1
  46   27   28 1
  47   27   46 1
  48   27   47 1
  49   28   29 1
  50   28   48 1
  51   28   49 1
  52   29   50 1
  53   29   51 1
  54   30   31 1
  55   30   32 1
  56   30   33 1

#	End of record

