#	Name: ASD02508094
#	Creating user name:	WinNT
#	Creation time:	15. 06. 2019 20:23

#	Modifying user name:	WinNT
#	Modification time:	15. 06. 2019 20:23

#	Program:	/corina/corina34_cracker 3.40 0067  02.08.2006

@<TRIPOS>MOLECULE
ASD02508094
  40   42    0    0    0
SMALL
NO_CHARGES


@<TRIPOS>ATOM
   1 C1             3.8562    -1.0007    -4.1777 C.ar    
   2 C2             4.7893    -1.6216    -3.3338 C.ar    
   3 C3             2.8219    -0.2791    -3.5799 C.ar    
   4 C4             2.7120    -0.1739    -2.2055 C.ar    
   5 C5             3.6453    -0.7954    -1.3881 C.ar    
   6 C6             4.6818    -1.5187    -1.9670 C.ar    
   7 N7             3.8265    -1.0037    -5.5632 N.am    
   8 C8             2.8431    -0.3449    -6.1835 C.2     
   9 S9             1.8420     0.3633    -4.9052 S.3     
  10 N10            3.5442    -0.6953     0.0038 N.am    
  11 S11            3.7027    -2.0486     0.9449 S.o2    
  12 C12            2.3720    -3.1281     0.5345 C.ar    
  13 C13            1.0662    -2.7644     0.8308 C.ar    
  14 O14            2.6716    -0.2484    -7.3847 O.2     
  15 O15            4.8924    -2.6976     0.5174 O.2     
  16 O16            3.4832    -1.6328     2.2859 O.2     
  17 C17            2.6273    -4.3346    -0.0875 C.ar    
  18 C18            1.5833    -5.1821    -0.4102 C.ar    
  19 C19            0.2819    -4.8244    -0.1113 C.ar    
  20 C20            0.0208    -3.6164     0.5065 C.ar    
  21 C21            4.8518    -1.7139    -6.3317 C.3     
  22 O22            0.8119    -1.5755     1.4381 O.3     
  23 C23           -0.5423    -1.3149     1.8127 C.3     
  24 C24            1.8648    -6.4977    -1.0893 C.3     
  25 H25            5.6024    -2.1879    -3.7634 H       
  26 H26            1.9016     0.3912    -1.7691 H       
  27 H27            5.4112    -2.0046    -1.3360 H       
  28 H28            3.3813     0.1668     0.4174 H       
  29 H29            3.6432    -4.6162    -0.3223 H       
  30 H30           -0.5318    -5.4878    -0.3647 H       
  31 H31           -0.9962    -3.3374     0.7398 H       
  32 H32            4.5283    -2.7397    -6.5080 H       
  33 H33            5.0030    -1.2113    -7.2870 H       
  34 H34            5.7870    -1.7190    -5.7718 H       
  35 H35           -1.1841    -1.3969     0.9355 H       
  36 H36           -0.8578    -2.0401     2.5628 H       
  37 H37           -0.6179    -0.3089     2.2255 H       
  38 H38            2.0185    -7.2700    -0.3356 H       
  39 H39            1.0185    -6.7692    -1.7203 H       
  40 H40            2.7608    -6.4054    -1.7030 H       
@<TRIPOS>BOND
   1    1    2 ar
   2    1    3 ar
   3    1    7 1
   4    2    6 ar
   5    2   25 1
   6    3    4 ar
   7    3    9 1
   8    4    5 ar
   9    4   26 1
  10    5    6 ar
  11    5   10 1
  12    6   27 1
  13    7    8 am
  14    7   21 1
  15    8    9 1
  16    8   14 2
  17   10   11 am
  18   10   28 1
  19   11   12 1
  20   11   15 2
  21   11   16 2
  22   12   13 ar
  23   12   17 ar
  24   13   22 1
  25   13   20 ar
  26   17   18 ar
  27   17   29 1
  28   18   19 ar
  29   18   24 1
  30   19   20 ar
  31   19   30 1
  32   20   31 1
  33   21   32 1
  34   21   33 1
  35   21   34 1
  36   22   23 1
  37   23   35 1
  38   23   36 1
  39   23   37 1
  40   24   38 1
  41   24   39 1
  42   24   40 1

#	End of record

