#	Name: ASD01940205
#	Creating user name:	WinNT
#	Creation time:	15. 06. 2019 20:12

#	Modifying user name:	WinNT
#	Modification time:	15. 06. 2019 20:12

#	Program:	/corina/corina34_cracker 3.40 0067  02.08.2006

@<TRIPOS>MOLECULE
ASD01940205
  51   52    0    0    0
SMALL
NO_CHARGES


@<TRIPOS>ATOM
   1 F1             3.2095     1.6161     2.0902 F       
   2 C2             2.2076     1.9975     1.2681 C.ar    
   3 C3             2.4747     2.2924    -0.0623 C.ar    
   4 C4             1.4377     2.6856    -0.9067 C.ar    
   5 C5             0.1445     2.7805    -0.4147 C.ar    
   6 C6            -0.1155     2.4856     0.9109 C.ar    
   7 C7             0.9118     2.0893     1.7502 C.ar    
   8 N8             3.7835     2.1954    -0.5546 N.pl3   
   9 N9             1.7015     2.9849    -2.2500 N.am    
  10 C10            4.2782     0.9618    -0.9855 C.ar    
  11 C11            3.4346    -0.1388    -1.0603 C.ar    
  12 C12            3.9269    -1.3571    -1.4867 C.ar    
  13 C13            5.2581    -1.4822    -1.8386 C.ar    
  14 C14            6.1021    -0.3887    -1.7653 C.ar    
  15 C15            5.6153     0.8344    -1.3461 C.ar    
  16 Cl16           6.6748     2.2065    -1.2542 Cl      
  17 F17            0.6512     1.7969     3.0432 F       
  18 S18            0.8557     4.1876    -3.0119 S.o2    
  19 O19            1.4159     4.2374    -4.3168 O.2     
  20 O20           -0.5071     3.8382    -2.8125 O.2     
  21 C21           -0.7773     6.9237    -2.2627 C.3     
  22 C22           -0.9220     8.0676    -1.2570 C.3     
  23 C23           -0.2225     7.6891     0.0500 C.3     
  24 C24           -1.6416     7.2127    -3.4917 C.3     
  25 C25           -1.6525     5.9869    -4.4072 C.3     
  26 C26            1.2700     5.6901    -2.0836 C.3     
  27 O27            0.5907     6.8080    -2.6590 O.3     
  28 C28            5.7910    -2.8132    -2.3028 C.3     
  29 F29            5.6562    -2.9108    -3.6919 F       
  30 F30            7.1422    -2.9209    -1.9567 F       
  31 F31            5.0693    -3.8436    -1.6907 F       
  32 H32           -0.6601     3.0853    -1.0675 H       
  33 H33           -1.1234     2.5603     1.2915 H       
  34 H34            4.3458     2.9848    -0.5961 H       
  35 H35            2.3794     2.4875    -2.7336 H       
  36 H36            2.3947    -0.0425    -0.7850 H       
  37 H37            3.2711    -2.2132    -1.5449 H       
  38 H38            7.1415    -0.4901    -2.0403 H       
  39 H39           -1.1021     5.9910    -1.8014 H       
  40 H40           -0.4663     8.9698    -1.6650 H       
  41 H41           -1.9791     8.2499    -1.0638 H       
  42 H42           -0.3432     8.4954     0.7734 H       
  43 H43           -0.6645     6.7754     0.4473 H       
  44 H44            0.8386     7.5269    -0.1396 H       
  45 H45           -2.6597     7.4387    -3.1749 H       
  46 H46           -1.2313     8.0660    -4.0319 H       
  47 H47           -2.1394     5.1562    -3.8964 H       
  48 H48           -2.1979     6.2211    -5.3215 H       
  49 H49           -0.6280     5.7101    -4.6561 H       
  50 H50            0.9608     5.5723    -1.0450 H       
  51 H51            2.3461     5.8579    -2.1255 H       
@<TRIPOS>BOND
   1    1    2 1
   2    2    3 ar
   3    2    7 ar
   4    3    4 ar
   5    3    8 1
   6    4    5 ar
   7    4    9 1
   8    5    6 ar
   9    5   32 1
  10    6    7 ar
  11    6   33 1
  12    7   17 1
  13    8   10 1
  14    8   34 1
  15    9   18 am
  16    9   35 1
  17   10   11 ar
  18   10   15 ar
  19   11   12 ar
  20   11   36 1
  21   12   13 ar
  22   12   37 1
  23   13   14 ar
  24   13   28 1
  25   14   15 ar
  26   14   38 1
  27   15   16 1
  28   18   19 2
  29   18   20 2
  30   18   26 1
  31   21   24 1
  32   21   27 1
  33   21   22 1
  34   21   39 1
  35   22   23 1
  36   22   40 1
  37   22   41 1
  38   23   42 1
  39   23   43 1
  40   23   44 1
  41   24   25 1
  42   24   45 1
  43   24   46 1
  44   25   47 1
  45   25   48 1
  46   25   49 1
  47   26   27 1
  48   26   50 1
  49   26   51 1
  50   28   29 1
  51   28   30 1
  52   28   31 1

#	End of record

