#	Name: ASD01000088
#	Creating user name:	WinNT
#	Creation time:	15. 06. 2019 18:54

#	Modifying user name:	WinNT
#	Modification time:	15. 06. 2019 18:54

#	Program:	/corina/corina34_cracker 3.40 0067  02.08.2006

@<TRIPOS>MOLECULE
ASD01000088
  66   69    0    0    0
SMALL
NO_CHARGES


@<TRIPOS>ATOM
   1 C1             7.0340    -6.0528     1.2090 C.ar    
   2 C2             6.3109    -5.4509     2.2200 C.ar    
   3 C3             5.4076    -4.4396     1.9184 C.ar    
   4 C4             5.2349    -4.0372     0.6002 C.ar    
   5 C5             5.9613    -4.6433    -0.4060 C.ar    
   6 C6             6.8597    -5.6498    -0.1023 C.ar    
   7 N7             4.6742    -3.8291     2.9384 N.pl3   
   8 N8             3.7107    -2.8614     2.6256 N.am    
   9 C9             2.3920    -3.1852     2.6720 C.2     
  10 C10            2.0143    -4.5907     3.0632 C.3     
  11 C11            2.7576    -4.9813     4.3421 C.3     
  12 C12            4.1020    -1.6112     2.2855 C.2     
  13 C13            3.0494    -0.6357     1.9670 C.ar    
  14 C14            1.7051    -1.0649     2.0365 C.ar    
  15 N15            1.4406    -2.3456     2.3970 N.2     
  16 C16            3.3455     0.6772     1.6058 C.ar    
  17 C17            2.3289     1.5456     1.3196 C.ar    
  18 C18            1.0032     1.1327     1.3852 C.ar    
  19 C19            0.6838    -0.1606     1.7395 C.ar    
  20 C20           -0.2744    -2.5325     4.1561 C.3     
  21 C21           -0.0149    -4.0072     4.4704 C.3     
  22 N22            0.5698    -4.6610     3.2970 N.am    
  23 C23            2.8422    -3.7701     5.2731 C.3     
  24 C24           -0.8630    -1.8441     5.3892 C.3     
  25 N25           -1.0015    -0.4053     5.1274 N.3     
  26 Cl26          -0.2652     2.2589     1.0160 Cl      
  27 O27            5.2798    -1.3063     2.2452 O.2     
  28 C28           -0.2211    -5.3272     2.4327 C.2     
  29 C29            0.3549    -5.9115     1.2042 C.ar    
  30 O30           -1.4085    -5.4473     2.6640 O.2     
  31 C31           -0.1956    -7.0717     0.6553 C.ar    
  32 C32            0.3455    -7.6124    -0.4914 C.ar    
  33 C33            1.4342    -7.0066    -1.0997 C.ar    
  34 C34            1.9849    -5.8548    -0.5586 C.ar    
  35 C35            1.4481    -5.3025     0.5845 C.ar    
  36 C36            2.0043    -6.1128     5.0445 C.3     
  37 F37            1.9607    -7.5406    -2.2234 F       
  38 H38            7.7397    -6.8360     1.4432 H       
  39 H39            6.4472    -5.7664     3.2438 H       
  40 H40            4.5332    -3.2514     0.3623 H       
  41 H41            5.8273    -4.3311    -1.4312 H       
  42 H42            7.4267    -6.1218    -0.8910 H       
  43 H43            4.8321    -4.0751     3.8633 H       
  44 H44            2.2863    -5.2766     2.2609 H       
  45 H45            3.7637    -5.3165     4.0897 H       
  46 H46            4.3725     1.0071     1.5525 H       
  47 H47            2.5583     2.5632     1.0400 H       
  48 H48           -0.3492    -0.4720     1.7876 H       
  49 H49            0.6635    -2.0488     3.8829 H       
  50 H50           -0.9776    -2.4560     3.3268 H       
  51 H51            0.6752    -4.0837     5.3106 H       
  52 H52           -0.9554    -4.4949     4.7271 H       
  53 H53            1.8728    -3.2732     5.3118 H       
  54 H54            3.1218    -4.0997     6.2737 H       
  55 H55            3.5923    -3.0744     4.8969 H       
  56 H56           -1.8421    -2.2692     5.6099 H       
  57 H57           -0.2004    -1.9962     6.2412 H       
  58 H58           -1.3886     0.0722     5.9275 H       
  59 H59           -0.1178    -0.0002     4.8572 H       
  60 H60           -1.0434    -7.5445     1.1285 H       
  61 H61           -0.0792    -8.5098    -0.9165 H       
  62 H62            2.8332    -5.3871    -1.0362 H       
  63 H63            1.8776    -4.4052     1.0049 H       
  64 H64            0.9405    -5.8772     5.0744 H       
  65 H65            2.1551    -7.0437     4.4980 H       
  66 H66            2.3807    -6.2234     6.0614 H       
@<TRIPOS>BOND
   1    1    2 ar
   2    1    6 ar
   3    1   38 1
   4    2    3 ar
   5    2   39 1
   6    3    4 ar
   7    3    7 1
   8    4    5 ar
   9    4   40 1
  10    5    6 ar
  11    5   41 1
  12    6   42 1
  13    7    8 1
  14    7   43 1
  15    8    9 1
  16    8   12 am
  17    9   10 1
  18    9   15 2
  19   10   11 1
  20   10   22 1
  21   10   44 1
  22   11   23 1
  23   11   36 1
  24   11   45 1
  25   12   13 1
  26   12   27 2
  27   13   14 ar
  28   13   16 ar
  29   14   15 1
  30   14   19 ar
  31   16   17 ar
  32   16   46 1
  33   17   18 ar
  34   17   47 1
  35   18   19 ar
  36   18   26 1
  37   19   48 1
  38   20   21 1
  39   20   24 1
  40   20   49 1
  41   20   50 1
  42   21   22 1
  43   21   51 1
  44   21   52 1
  45   22   28 am
  46   23   53 1
  47   23   54 1
  48   23   55 1
  49   24   25 1
  50   24   56 1
  51   24   57 1
  52   25   58 1
  53   25   59 1
  54   28   29 1
  55   28   30 2
  56   29   31 ar
  57   29   35 ar
  58   31   32 ar
  59   31   60 1
  60   32   33 ar
  61   32   61 1
  62   33   34 ar
  63   33   37 1
  64   34   35 ar
  65   34   62 1
  66   35   63 1
  67   36   64 1
  68   36   65 1
  69   36   66 1

#	End of record

