#	Name: ASD01812999
#	Creating user name:	WinNT
#	Creation time:	15. 06. 2019 19:29

#	Modifying user name:	WinNT
#	Modification time:	15. 06. 2019 19:29

#	Program:	/corina/corina34_cracker 3.40 0067  02.08.2006

@<TRIPOS>MOLECULE
ASD01812999
  54   58    0    0    0
SMALL
NO_CHARGES


@<TRIPOS>ATOM
   1 N1             0.0054     1.3209    -0.2542 N.ar    
   2 C2             0.0360     0.0094    -0.3894 C.ar    
   3 C3             1.2382    -0.6807    -0.4031 C.ar    
   4 C4             2.4141     0.0228    -0.2728 C.ar    
   5 C5             2.3628     1.4142    -0.1302 C.ar    
   6 C6             1.1087     2.0407    -0.1257 C.ar    
   7 C7             3.8707    -0.3562    -0.2425 C.3     
   8 N8             4.6159     0.8979    -0.0761 N.am    
   9 C9             3.7396     1.9161    -0.0120 C.2     
  10 C10            6.0735     1.0198     0.0071 C.3     
  11 C11            6.6416     1.2083    -1.3759 C.ar    
  12 O12            1.0259     3.3856     0.0100 O.3     
  13 O13            4.0430     3.0857     0.1241 O.2     
  14 C14            6.7952     2.4833    -1.8899 C.ar    
  15 C15            7.3150     2.6617    -3.1559 C.ar    
  16 C16            7.6858     1.5545    -3.9164 C.ar    
  17 C17            7.5293     0.2724    -3.3934 C.ar    
  18 C18            7.0129     0.1059    -2.1244 C.ar    
  19 C19           -0.2021     3.9617    -0.0802 C.ar    
  20 C20           -1.0070     4.0609     1.0455 C.ar    
  21 C21           -0.6493     4.4560    -1.2966 C.ar    
  22 C22           -1.8975     5.0413    -1.3869 C.ar    
  23 C23           -2.7017     5.1348    -0.2639 C.ar    
  24 C24           -2.2544     4.6465     0.9524 C.ar    
  25 C25           -0.5206     3.5295     2.3692 C.3     
  26 C26            8.2447     1.7400    -5.2783 C.ar    
  27 C27            8.4103     3.0155    -5.8234 C.ar    
  28 N28            8.9096     3.1468    -7.0363 N.ar    
  29 N29            9.2555     2.1374    -7.7484 N.ar    
  30 C30            9.1373     0.8940    -7.3207 C.ar    
  31 C31            8.6296     0.6428    -6.0586 C.ar    
  32 C32            9.5608    -0.2507    -8.2045 C.3     
  33 F33           -3.9218     5.7082    -0.3534 F       
  34 H34           -0.8907    -0.5359    -0.4908 H       
  35 H35            1.2520    -1.7549    -0.5141 H       
  36 H36            4.0671    -1.0232     0.5969 H       
  37 H37            4.1521    -0.8381    -1.1788 H       
  38 H38            6.3314     1.8791     0.6261 H       
  39 H39            6.4890     0.1149     0.4505 H       
  40 H40            6.5075     3.3407    -1.2995 H       
  41 H41            7.4338     3.6576    -3.5565 H       
  42 H42            7.8151    -0.5892    -3.9786 H       
  43 H43            6.8947    -0.8871    -1.7166 H       
  44 H44           -0.0218     4.3838    -2.1727 H       
  45 H45           -2.2460     5.4263    -2.3338 H       
  46 H46           -2.8812     4.7238     1.8285 H       
  47 H47            0.0107     4.3170     2.9037 H       
  48 H48           -1.3726     3.1984     2.9630 H       
  49 H49            0.1518     2.6889     2.1983 H       
  50 H50            8.1302     3.8896    -5.2542 H       
  51 H51            8.5297    -0.3669    -5.6886 H       
  52 H52           10.6106    -0.4810    -8.0229 H       
  53 H53            8.9525    -1.1271    -7.9804 H       
  54 H54            9.4255     0.0278    -9.2496 H       
@<TRIPOS>BOND
   1    1    2 ar
   2    1    6 ar
   3    2    3 ar
   4    2   34 1
   5    3    4 ar
   6    3   35 1
   7    4    7 1
   8    4    5 ar
   9    5    6 ar
  10    5    9 1
  11    6   12 1
  12    7    8 1
  13    7   36 1
  14    7   37 1
  15    8    9 am
  16    8   10 1
  17    9   13 2
  18   10   11 1
  19   10   38 1
  20   10   39 1
  21   11   14 ar
  22   11   18 ar
  23   12   19 1
  24   14   15 ar
  25   14   40 1
  26   15   16 ar
  27   15   41 1
  28   16   17 ar
  29   16   26 1
  30   17   18 ar
  31   17   42 1
  32   18   43 1
  33   19   21 ar
  34   19   20 ar
  35   20   24 ar
  36   20   25 1
  37   21   22 ar
  38   21   44 1
  39   22   23 ar
  40   22   45 1
  41   23   24 ar
  42   23   33 1
  43   24   46 1
  44   25   47 1
  45   25   48 1
  46   25   49 1
  47   26   27 ar
  48   26   31 ar
  49   27   28 ar
  50   27   50 1
  51   28   29 ar
  52   29   30 ar
  53   30   31 ar
  54   30   32 1
  55   31   51 1
  56   32   52 1
  57   32   53 1
  58   32   54 1

#	End of record

