#	Name: ASD06020069
#	Creating user name:	WinNT
#	Creation time:	15. 06. 2019 21:04

#	Modifying user name:	WinNT
#	Modification time:	15. 06. 2019 21:04

#	Program:	/corina/corina34_cracker 3.40 0067  02.08.2006

@<TRIPOS>MOLECULE
ASD06020069
  34   37    0    0    0
SMALL
NO_CHARGES


@<TRIPOS>ATOM
   1 C1            -0.0721     1.2922     0.0292 C.ar    
   2 C2             1.1273     2.0061     0.0288 C.ar    
   3 N3            -0.0535    -0.0403     0.0087 N.ar    
   4 N4             2.2785     1.3608     0.0082 N.ar    
   5 C5             2.2953     0.0330    -0.0122 C.ar    
   6 C6             1.0952    -0.6817    -0.0119 C.ar    
   7 C7            -1.3218     1.9909     0.0576 C.1     
   8 N8            -2.3131     2.5452     0.0801 N.1     
   9 N9             3.5054    -0.6444    -0.0344 N.pl3   
  10 C10            4.6977     0.0644    -0.1470 C.ar    
  11 C11            5.9196    -0.6105    -0.0563 C.ar    
  12 C12            7.1152     0.1082    -0.1704 C.ar    
  13 C13            7.0095     1.5074    -0.3759 C.ar    
  14 C14            5.7805     2.0829    -0.4524 C.ar    
  15 N15            4.6696     1.3711    -0.3446 N.ar    
  16 S16            6.3148    -2.3078     0.1906 S.3     
  17 C17            8.0310    -1.9279     0.1226 C.2     
  18 N18            8.2006    -0.6596    -0.0651 N.2     
  19 C19            9.1219    -2.9158     0.2603 C.ar    
  20 C20           10.4545    -2.5038     0.1903 C.ar    
  21 C21           11.4685    -3.4323     0.3203 C.ar    
  22 C22           11.1669    -4.7676     0.5188 C.ar    
  23 C23            9.8493    -5.1829     0.5892 C.ar    
  24 C24            8.8249    -4.2648     0.4667 C.ar    
  25 Cl25           7.1721    -4.7872     0.5620 Cl      
  26 Cl26          10.8354    -0.8287    -0.0599 Cl      
  27 H27            1.1134     3.0859     0.0451 H       
  28 H28            1.1101    -1.7615    -0.0285 H       
  29 H29            3.5206    -1.6122     0.0286 H       
  30 H30            7.8996     2.1117    -0.4707 H       
  31 H31            5.7084     3.1490    -0.6090 H       
  32 H32           12.4995    -3.1151     0.2664 H       
  33 H33           11.9639    -5.4894     0.6190 H       
  34 H34            9.6211    -6.2271     0.7440 H       
@<TRIPOS>BOND
   1    1    2 ar
   2    1    3 ar
   3    1    7 1
   4    2    4 ar
   5    2   27 1
   6    3    6 ar
   7    4    5 ar
   8    5    6 ar
   9    5    9 1
  10    6   28 1
  11    7    8 3
  12    9   10 1
  13    9   29 1
  14   10   11 ar
  15   10   15 ar
  16   11   12 ar
  17   11   16 1
  18   12   13 ar
  19   12   18 1
  20   13   14 ar
  21   13   30 1
  22   14   15 ar
  23   14   31 1
  24   16   17 1
  25   17   18 2
  26   17   19 1
  27   19   20 ar
  28   19   24 ar
  29   20   21 ar
  30   20   26 1
  31   21   22 ar
  32   21   32 1
  33   22   23 ar
  34   22   33 1
  35   23   24 ar
  36   23   34 1
  37   24   25 1

#	End of record

