#	Name: ASD03090001
#	Creating user name:	WinNT
#	Creation time:	15. 06. 2019 20:28

#	Modifying user name:	WinNT
#	Modification time:	15. 06. 2019 20:28

#	Program:	/corina/corina34_cracker 3.40 0067  02.08.2006

@<TRIPOS>MOLECULE
ASD03090001
  40   43    0    0    0
SMALL
NO_CHARGES


@<TRIPOS>ATOM
   1 C1            -0.0168     1.3850     0.0097 C.ar    
   2 C2             0.0021    -0.0041     0.0020 C.ar    
   3 C3            -1.1587    -0.7413     0.0419 C.ar    
   4 C4            -2.4188    -0.1323     0.1154 C.ar    
   5 C5            -2.4438     1.2304     0.0744 C.ar    
   6 C6            -1.2747     2.0010     0.0309 C.ar    
   7 C7            -3.5963     2.2098    -0.0414 C.3     
   8 C8            -2.9113     3.5461     0.2732 C.3     
   9 O9            -1.5375     3.3234    -0.0626 O.3     
  10 C10           -4.1628     2.1249    -1.4193 C.2     
  11 C11           -4.1319     3.0894    -2.3267 C.2     
  12 C12           -3.5104     4.3746    -1.9724 C.2     
  13 C13           -3.4969     4.7158    -0.4961 C.3     
  14 C14           -4.6586     1.9328     1.0056 C.3     
  15 C15           -5.3225     0.5997     0.8163 C.3     
  16 C16           -3.5837    -1.0534     0.3300 C.3     
  17 N17           -4.5486    -0.5225     1.2714 N.3     
  18 C18           -5.4188    -1.5864     1.7898 C.3     
  19 O19           -3.0384     5.1150    -2.8097 O.2     
  20 O20            1.1322     2.1126     0.0026 O.3     
  21 C21            2.3614     1.3840    -0.0131 C.3     
  22 H22           -2.9924     3.7537     1.3402 H       
  23 H23            0.9513    -0.5178    -0.0366 H       
  24 H24           -1.0972    -1.8192     0.0156 H       
  25 H25           -4.6387     1.1973    -1.7010 H       
  26 H26           -4.5547     2.9349    -3.3084 H       
  27 H27           -4.5152     4.9039    -0.1557 H       
  28 H28           -2.8857     5.6032    -0.3321 H       
  29 H29           -4.1959     1.9589     1.9922 H       
  30 H30           -5.4166     2.7143     0.9536 H       
  31 H31           -6.2704     0.6065     1.3543 H       
  32 H32           -5.5330     0.4664    -0.2449 H       
  33 H33           -4.0800    -1.2220    -0.6256 H       
  34 H34           -3.2136    -2.0074     0.7054 H       
  35 H35           -6.0912    -1.9227     1.0005 H       
  36 H36           -4.8076    -2.4234     2.1274 H       
  37 H37           -6.0032    -1.2027     2.6260 H       
  38 H38            2.4204     0.7519     0.8730 H       
  39 H39            2.4034     0.7615    -0.9068 H       
  40 H40            3.1979     2.0828    -0.0173 H       
@<TRIPOS>BOND
   1    1    2 ar
   2    1   20 1
   3    1    6 ar
   4    2    3 ar
   5    2   23 1
   6    3    4 ar
   7    3   24 1
   8    4    5 ar
   9    4   16 1
  10    5    6 ar
  11    5    7 1
  12    6    9 1
  13    7    8 1
  14    7   10 1
  15    7   14 1
  16    8    9 1
  17    8   22 1
  18    8   13 1
  19   10   11 2
  20   10   25 1
  21   11   12 1
  22   11   26 1
  23   12   13 1
  24   12   19 2
  25   13   27 1
  26   13   28 1
  27   14   15 1
  28   14   29 1
  29   14   30 1
  30   15   17 1
  31   15   31 1
  32   15   32 1
  33   16   17 1
  34   16   33 1
  35   16   34 1
  36   17   18 1
  37   18   35 1
  38   18   36 1
  39   18   37 1
  40   20   21 1
  41   21   38 1
  42   21   39 1
  43   21   40 1

#	End of record

