#	Name: ASD01941020
#	Creating user name:	WinNT
#	Creation time:	15. 06. 2019 20:13

#	Modifying user name:	WinNT
#	Modification time:	15. 06. 2019 20:13

#	Program:	/corina/corina34_cracker 3.40 0067  02.08.2006

@<TRIPOS>MOLECULE
ASD01941020
  57   62    0    0    0
SMALL
NO_CHARGES


@<TRIPOS>ATOM
   1 N1             0.2719     1.9505    -1.5533 N.am    
   2 C2             0.6119     0.6513    -1.5732 C.2     
   3 N3            -0.2788    -0.3351    -1.3758 N.am    
   4 C4            -1.6003    -0.0539    -1.1406 C.2     
   5 C5            -2.0067     1.2808    -1.1096 C.2     
   6 C6            -1.0060     2.3276    -1.3241 C.2     
   7 N7            -2.5091    -1.0425    -0.9403 N.am    
   8 C8            -3.8048    -0.7718    -0.7100 C.2     
   9 C9            -4.2867     0.5381    -0.6642 C.2     
  10 C10           -3.4105     1.5960    -0.8599 C.2     
  11 C11            0.1483    -1.6693    -1.4111 C.ar    
  12 C12            0.3502    -2.3030    -2.6299 C.ar    
  13 C13            0.7711    -3.6181    -2.6615 C.ar    
  14 C14            0.9915    -4.3035    -1.4810 C.ar    
  15 C15            0.7913    -3.6751    -0.2656 C.ar    
  16 C16            0.3759    -2.3584    -0.2275 C.ar    
  17 C17           -2.0661    -2.4385    -0.9766 C.3     
  18 O18           -4.5824    -1.6965    -0.5364 O.2     
  19 N19           -3.8517     2.9035    -0.8215 N.pl3   
  20 C20           -3.4517     3.7465     0.2210 C.ar    
  21 C21           -2.7282     3.2360     1.2899 C.ar    
  22 C22           -2.3341     4.0710     2.3178 C.ar    
  23 C23           -2.6592     5.4142     2.2836 C.ar    
  24 C24           -3.3801     5.9280     1.2208 C.ar    
  25 C25           -3.7732     5.0996     0.1861 C.ar    
  26 O26            1.7730     0.3558    -1.7786 O.2     
  27 C27            1.2989     2.9712    -1.7765 C.3     
  28 O28           -1.3172     3.5040    -1.3048 O.2     
  29 C29            1.9820     2.9985    -3.1453 C.3     
  30 C30            0.9785     4.0905    -2.7692 C.3     
  31 F31           -4.4769     5.6013    -0.8523 F       
  32 C32           -2.2276     6.3209     3.4074 C.3     
  33 C33           -1.3185     7.4999     3.0544 C.3     
  34 C34           -2.7840     7.7461     3.4186 C.3     
  35 H35           -5.3336     0.7263    -0.4771 H       
  36 H36            0.1779    -1.7683    -3.5523 H       
  37 H37            0.9280    -4.1117    -3.6092 H       
  38 H38            1.3203    -5.3319    -1.5082 H       
  39 H39            0.9639    -4.2132     0.6548 H       
  40 H40            0.2201    -1.8680     0.7221 H       
  41 H41           -1.6433    -2.7108    -0.0096 H       
  42 H42           -2.9166    -3.0839    -1.1960 H       
  43 H43           -1.3089    -2.5594    -1.7513 H       
  44 H44           -4.4390     3.2379    -1.5173 H       
  45 H45           -2.4737     2.1867     1.3182 H       
  46 H46           -1.7714     3.6736     3.1496 H       
  47 H47           -3.6327     6.9778     1.1973 H       
  48 H48            1.9040     3.2273    -0.9068 H       
  49 H49            3.0364     3.2729    -3.1762 H       
  50 H50            1.6672     2.2570    -3.8797 H       
  51 H51            0.0036     4.0675    -3.2562 H       
  52 H52            1.3727     5.0833    -2.5526 H       
  53 H53           -2.0698     5.8343     4.3698 H       
  54 H54           -0.5630     7.7891     3.7848 H       
  55 H55           -1.0327     7.6197     2.0094 H       
  56 H56           -3.4623     8.0279     2.6132 H       
  57 H57           -2.9925     8.1973     4.3887 H       
@<TRIPOS>BOND
   1    1    2 am
   2    1   27 1
   3    1    6 am
   4    2    3 am
   5    2   26 2
   6    3    4 1
   7    3   11 1
   8    4    5 2
   9    4    7 1
  10    5    6 1
  11    5   10 1
  12    6   28 2
  13    7    8 am
  14    7   17 1
  15    8    9 1
  16    8   18 2
  17    9   10 2
  18    9   35 1
  19   10   19 1
  20   11   12 ar
  21   11   16 ar
  22   12   13 ar
  23   12   36 1
  24   13   14 ar
  25   13   37 1
  26   14   15 ar
  27   14   38 1
  28   15   16 ar
  29   15   39 1
  30   16   40 1
  31   17   41 1
  32   17   42 1
  33   17   43 1
  34   19   20 1
  35   19   44 1
  36   20   21 ar
  37   20   25 ar
  38   21   22 ar
  39   21   45 1
  40   22   23 ar
  41   22   46 1
  42   23   24 ar
  43   23   32 1
  44   24   25 ar
  45   24   47 1
  46   25   31 1
  47   27   29 1
  48   27   30 1
  49   27   48 1
  50   29   30 1
  51   29   49 1
  52   29   50 1
  53   30   51 1
  54   30   52 1
  55   32   33 1
  56   32   34 1
  57   32   53 1
  58   33   34 1
  59   33   54 1
  60   33   55 1
  61   34   56 1
  62   34   57 1

#	End of record

