#	Name: ASD09790008
#	Creating user name:	WinNT
#	Creation time:	15. 06. 2019 21:23

#	Modifying user name:	WinNT
#	Modification time:	15. 06. 2019 21:23

#	Program:	/corina/corina34_cracker 3.40 0067  02.08.2006

@<TRIPOS>MOLECULE
ASD09790008
  36   39    0    0    0
SMALL
NO_CHARGES


@<TRIPOS>ATOM
   1 C1            -0.2542     2.1068    -0.5399 C.2     
   2 C2            -0.4532     0.6710    -0.2433 C.ar    
   3 C3             0.5839    -0.0305     0.3910 C.ar    
   4 O4             1.7336     0.5849     0.7327 O.3     
   5 C5             2.0770     1.7868     0.2272 C.ar    
   6 C6             1.1275     2.6040    -0.4114 C.ar    
   7 C7            -1.6389     0.0245    -0.5847 C.ar    
   8 C8            -1.7897    -1.3159    -0.2992 C.ar    
   9 C9            -0.7665    -2.0137     0.3239 C.ar    
  10 C10            0.4103    -1.3829     0.6674 C.ar    
  11 C11            1.4926     3.8589    -0.9151 C.ar    
  12 C12            3.3864     2.2341     0.3339 C.ar    
  13 C13            3.7442     3.4736    -0.1739 C.ar    
  14 C14            2.8027     4.2864    -0.7942 C.ar    
  15 O15           -1.1738     2.8315    -0.8742 O.2     
  16 O16            0.5686     4.6489    -1.5173 O.3     
  17 O17            5.0290     3.8981    -0.0644 O.3     
  18 C18            5.2892     4.8228     0.8802 C.2     
  19 C19            6.6415     5.4162     0.9824 C.ar    
  20 O20            4.4144     5.1695     1.6477 O.2     
  21 C21            7.6619     5.0354     0.1048 C.ar    
  22 C22            8.9090     5.6149     0.2361 C.ar    
  23 C23            6.9330     6.3776     1.9556 C.ar    
  24 C24            8.2084     6.9049     2.0150 C.ar    
  25 N25            9.1427     6.5137     1.1715 N.ar    
  26 H26           -2.4351     0.5698    -1.0697 H       
  27 H27           -2.7066    -1.8231    -0.5611 H       
  28 H28           -0.8928    -3.0637     0.5428 H       
  29 H29            1.1985    -1.9395     1.1525 H       
  30 H30            4.1291     1.6147     0.8145 H       
  31 H31            3.0940     5.2512    -1.1823 H       
  32 H32            0.1081     5.2468    -0.9126 H       
  33 H33            7.4776     4.2993    -0.6637 H       
  34 H34            9.7035     5.3272    -0.4365 H       
  35 H35            6.1723     6.7030     2.6497 H       
  36 H36            8.4432     7.6481     2.7627 H       
@<TRIPOS>BOND
   1    1    2 1
   2    1    6 1
   3    1   15 2
   4    2    3 ar
   5    2    7 ar
   6    3    4 1
   7    3   10 ar
   8    4    5 1
   9    5   12 ar
  10    5    6 ar
  11    6   11 ar
  12    7    8 ar
  13    7   26 1
  14    8    9 ar
  15    8   27 1
  16    9   10 ar
  17    9   28 1
  18   10   29 1
  19   11   14 ar
  20   11   16 1
  21   12   13 ar
  22   12   30 1
  23   13   14 ar
  24   13   17 1
  25   14   31 1
  26   16   32 1
  27   17   18 1
  28   18   19 1
  29   18   20 2
  30   19   23 ar
  31   19   21 ar
  32   21   22 ar
  33   21   33 1
  34   22   25 ar
  35   22   34 1
  36   23   24 ar
  37   23   35 1
  38   24   25 ar
  39   24   36 1

#	End of record

