#	Name: ASD03091860
#	Creating user name:	WinNT
#	Creation time:	15. 06. 2019 20:31

#	Modifying user name:	WinNT
#	Modification time:	15. 06. 2019 20:31

#	Program:	/corina/corina34_cracker 3.40 0067  02.08.2006

@<TRIPOS>MOLECULE
ASD03091860
  47   49    0    0    0
SMALL
NO_CHARGES


@<TRIPOS>ATOM
   1 Cl1            0.0000     0.0000     0.0000 Cl      
   2 H2             0.0000     1.3700     0.0000 H       
   3 F3            10.5343    15.6984     7.0667 F       
   4 F4             9.7351    14.6198     5.2181 F       
   5 F5            11.3660    16.2047     5.0000 F       
   6 O6             9.8807     6.5294     6.9729 O.2     
   7 O7            10.8840     9.9430     6.5773 O.3     
   8 N8             6.3535     9.0258     8.5276 N.3     
   9 N9             8.4974     8.2672     6.9028 N.am    
  10 C10            8.2773     9.7162     6.9054 C.3     
  11 C11            8.4202    10.3109     8.2873 C.3     
  12 C12            6.8865     9.9666     6.3199 C.3     
  13 C13            7.3195     9.8265     9.2309 C.3     
  14 C14            5.8049     9.7369     7.3696 C.3     
  15 C15            6.6621     7.6398     8.2963 C.3     
  16 C16            7.2781     7.4186     6.9159 C.3     
  17 C17            9.7356     7.7350     6.8887 C.2     
  18 C18           10.9069     8.6076     6.7720 C.2     
  19 C19           12.2234     8.2079     6.8415 C.2     
  20 C20           12.1438    10.4064     6.5205 C.2     
  21 C21           13.0032     9.3578     6.6807 C.2     
  22 C22           12.5341    11.8164     6.3177 C.ar    
  23 C23           11.5552    12.8002     6.1658 C.ar    
  24 C24           13.8842    12.1724     6.2828 C.ar    
  25 C25           11.9269    14.1153     5.9766 C.ar    
  26 C26           14.2416    13.4909     6.0930 C.ar    
  27 C27           13.2661    14.4601     5.9369 C.ar    
  28 C28           10.8717    15.1786     5.8124 C.3     
  29 H29            9.0090    10.1825     6.2457 H       
  30 H30            9.3896    10.0274     8.6973 H       
  31 H31            8.3716    11.3973     8.2130 H       
  32 H32            6.8275    10.9951     5.9637 H       
  33 H33            6.7229     9.2883     5.4825 H       
  34 H34            6.8183    10.6895     9.6691 H       
  35 H35            7.7668     9.2310    10.0268 H       
  36 H36            5.0000     9.1456     6.9329 H       
  37 H37            5.4082    10.6991     7.6935 H       
  38 H38            7.3650     7.3006     9.0573 H       
  39 H39            5.7462     7.0541     8.3745 H       
  40 H40            6.5860     7.7371     6.1364 H       
  41 H41            7.5445     6.3700     6.7832 H       
  42 H42           12.5839     7.2010     6.9918 H       
  43 H43           14.0821     9.4069     6.6827 H       
  44 H44           10.5093    12.5323     6.1959 H       
  45 H45           14.6464    11.4171     6.4045 H       
  46 H46           15.2852    13.7676     6.0658 H       
  47 H47           13.5516    15.4909     5.7878 H       
@<TRIPOS>BOND
   1    1    2 1
   2    3   28 1
   3    4   28 1
   4    5   28 1
   5    6   17 2
   6    7   18 1
   7    7   20 1
   8    8   13 1
   9    8   14 1
  10    8   15 1
  11    9   10 1
  12    9   16 1
  13    9   17 am
  14   10   11 1
  15   10   12 1
  16   10   29 1
  17   11   13 1
  18   11   30 1
  19   11   31 1
  20   12   14 1
  21   12   32 1
  22   12   33 1
  23   13   34 1
  24   13   35 1
  25   14   36 1
  26   14   37 1
  27   15   16 1
  28   15   38 1
  29   15   39 1
  30   16   40 1
  31   16   41 1
  32   17   18 1
  33   18   19 2
  34   19   21 1
  35   19   42 1
  36   20   21 2
  37   20   22 1
  38   21   43 1
  39   22   23 ar
  40   22   24 ar
  41   23   25 ar
  42   23   44 1
  43   24   26 ar
  44   24   45 1
  45   25   27 ar
  46   25   28 1
  47   26   27 ar
  48   26   46 1
  49   27   47 1

#	End of record

