#	Name: ASD01000079
#	Creating user name:	WinNT
#	Creation time:	15. 06. 2019 18:54

#	Modifying user name:	WinNT
#	Modification time:	15. 06. 2019 18:54

#	Program:	/corina/corina34_cracker 3.40 0067  02.08.2006

@<TRIPOS>MOLECULE
ASD01000079
  47   49    0    0    0
SMALL
NO_CHARGES


@<TRIPOS>ATOM
   1 C1            -0.3519     1.0881     0.8806 C.ar    
   2 C2            -0.2189    -0.2668     0.6409 C.ar    
   3 C3             1.0188    -0.7944     0.3235 C.ar    
   4 C4             2.1234     0.0330     0.2454 C.ar    
   5 C5             1.9903     1.3880     0.4843 C.ar    
   6 C6             0.7529     1.9154     0.8030 C.ar    
   7 C7             1.1639    -2.2716     0.0632 C.3     
   8 C8             2.5422    -2.5535    -0.4770 C.ar    
   9 C9             3.3713    -3.4462     0.1760 C.ar    
  10 C10            4.6356    -3.7047    -0.3195 C.ar    
  11 C11            5.0707    -3.0708    -1.4683 C.ar    
  12 C12            4.2413    -2.1787    -2.1218 C.ar    
  13 C13            2.9753    -1.9235    -1.6287 C.ar    
  14 S14            0.9229    -3.1851     1.6118 S.3     
  15 C15            2.1010    -2.3924     2.7407 C.3     
  16 C16            2.1098    -3.1397     4.0757 C.3     
  17 C17            0.1308    -2.7081    -0.9435 C.ar    
  18 C18           -0.3347    -4.0098    -0.9357 C.ar    
  19 N19            0.7652    -3.1029     4.6663 N.3     
  20 C20           -1.2825    -4.4105    -1.8585 C.ar    
  21 C21           -1.7652    -3.5088    -2.7899 C.ar    
  22 C22           -1.2991    -2.2065    -2.7972 C.ar    
  23 C23           -0.3551    -1.8053    -1.8707 C.ar    
  24 Br24          -3.0615    -4.0565    -4.0530 Br      
  25 C25            3.0885    -2.4812     5.0135 C.2     
  26 O26            2.6913    -1.7239     5.8671 O.2     
  27 O27            4.4015    -2.7360     4.9006 O.3     
  28 H28           -1.3196     1.5010     1.1242 H       
  29 H29           -1.0819    -0.9132     0.7019 H       
  30 H30            3.0905    -0.3793    -0.0018 H       
  31 H31            2.8535     2.0343     0.4239 H       
  32 H32            0.6488     2.9741     0.9892 H       
  33 H33            3.0314    -3.9415     1.0736 H       
  34 H34            5.2836    -4.4017     0.1912 H       
  35 H35            6.0588    -3.2723    -1.8550 H       
  36 H36            4.5813    -1.6832    -3.0191 H       
  37 H37            2.3273    -1.2266    -2.1393 H       
  38 H38            3.0987    -2.4197     2.3025 H       
  39 H39            1.8050    -1.3565     2.9060 H       
  40 H40            2.4058    -4.1756     3.9103 H       
  41 H41            0.0425    -4.7138    -0.2088 H       
  42 H42            0.7290    -3.6442     5.5170 H       
  43 H43            0.4678    -2.1527     4.8294 H       
  44 H44           -1.6459    -5.4275    -1.8527 H       
  45 H45           -1.6754    -1.5022    -3.5244 H       
  46 H46            0.0088    -0.7885    -1.8763 H       
  47 H47            4.9905    -2.2902     5.5247 H       
@<TRIPOS>BOND
   1    1    2 ar
   2    1    6 ar
   3    1   28 1
   4    2    3 ar
   5    2   29 1
   6    3    4 ar
   7    3    7 1
   8    4    5 ar
   9    4   30 1
  10    5    6 ar
  11    5   31 1
  12    6   32 1
  13    7    8 1
  14    7   14 1
  15    7   17 1
  16    8    9 ar
  17    8   13 ar
  18    9   10 ar
  19    9   33 1
  20   10   11 ar
  21   10   34 1
  22   11   12 ar
  23   11   35 1
  24   12   13 ar
  25   12   36 1
  26   13   37 1
  27   14   15 1
  28   15   16 1
  29   15   38 1
  30   15   39 1
  31   16   25 1
  32   16   19 1
  33   16   40 1
  34   17   18 ar
  35   17   23 ar
  36   18   20 ar
  37   18   41 1
  38   19   42 1
  39   19   43 1
  40   20   21 ar
  41   20   44 1
  42   21   22 ar
  43   21   24 1
  44   22   23 ar
  45   22   45 1
  46   23   46 1
  47   25   26 2
  48   25   27 1
  49   27   47 1

#	End of record

