#	Name: ASD08150509
#	Creating user name:	WinNT
#	Creation time:	15. 06. 2019 21:16

#	Modifying user name:	WinNT
#	Modification time:	15. 06. 2019 21:16

#	Program:	/corina/corina34_cracker 3.40 0067  02.08.2006

@<TRIPOS>MOLECULE
ASD08150509
  43   47    0    0    0
SMALL
NO_CHARGES


@<TRIPOS>ATOM
   1 N1             0.0532     1.4624     0.1686 N.am    
   2 C2             0.0691     0.1174     0.0938 C.2     
   3 C3             1.2872    -0.5919     0.0730 C.2     
   4 C4             2.4676     0.0760     0.1289 C.2     
   5 C5             2.4546     1.4911     0.2076 C.ar    
   6 C6             3.6505     2.2320     0.2674 C.ar    
   7 N7             3.6357     3.5372     0.3400 N.ar    
   8 C8             2.4940     4.2418     0.3613 C.ar    
   9 C9             1.2434     3.5790     0.3046 C.ar    
  10 C10            1.2248     2.1668     0.2259 C.ar    
  11 C11            0.1230     5.7039     0.4075 C.ar    
  12 C12            1.3639     6.3529     0.4622 C.ar    
  13 C13            2.5243     5.6437     0.4405 C.ar    
  14 O14           -0.9842    -0.4946     0.0438 O.2     
  15 C15           -1.1700     2.1442     0.1819 C.ar    
  16 C16           -1.7731     2.5136    -1.0130 C.ar    
  17 C17           -2.9797     3.1856    -0.9977 C.ar    
  18 C18           -3.5880     3.4908     0.2082 C.ar    
  19 C19           -2.9881     3.1232     1.4013 C.ar    
  20 C20           -1.7844     2.4467     1.3903 C.ar    
  21 C21            0.0593     4.3228     0.3284 C.ar    
  22 C22           -1.1291     6.5009     0.4332 C.2     
  23 F23           -4.7680     4.1485     0.2211 F       
  24 C24           -1.2271     7.8413     0.6692 C.2     
  25 N25           -2.5326     8.1725     0.6037 N.pl3   
  26 N26           -3.2646     7.0130     0.3207 N.2     
  27 C27           -2.4316     6.0121     0.2125 C.2     
  28 C28           -1.1113     2.1821    -2.3257 C.3     
  29 F29           -1.9028     2.6525    -3.3789 F       
  30 F30            0.1472     2.7907    -2.3803 F       
  31 F31           -0.9638     0.7953    -2.4365 F       
  32 H32            1.2812    -1.6702     0.0128 H       
  33 H33            3.4032    -0.4632     0.1140 H       
  34 H34            4.5973     1.7125     0.2533 H       
  35 H35            1.3992     7.4307     0.5221 H       
  36 H36            3.4718     6.1601     0.4846 H       
  37 H37           -3.4489     3.4734    -1.9269 H       
  38 H38           -3.4639     3.3626     2.3408 H       
  39 H39           -1.3170     2.1603     2.3208 H       
  40 H40           -0.8976     3.8239     0.2851 H       
  41 H41           -0.4076     8.5149     0.8717 H       
  42 H42           -2.9010     9.0607     0.7310 H       
  43 H43           -2.6963     4.9873    -0.0022 H       
@<TRIPOS>BOND
   1    1    2 am
   2    1   10 1
   3    1   15 1
   4    2    3 1
   5    2   14 2
   6    3    4 2
   7    3   32 1
   8    4    5 1
   9    4   33 1
  10    5    6 ar
  11    5   10 ar
  12    6    7 ar
  13    6   34 1
  14    7    8 ar
  15    8    9 ar
  16    8   13 ar
  17    9   10 ar
  18    9   21 ar
  19   11   12 ar
  20   11   22 1
  21   11   21 ar
  22   12   13 ar
  23   12   35 1
  24   13   36 1
  25   15   16 ar
  26   15   20 ar
  27   16   17 ar
  28   16   28 1
  29   17   18 ar
  30   17   37 1
  31   18   19 ar
  32   18   23 1
  33   19   20 ar
  34   19   38 1
  35   20   39 1
  36   21   40 1
  37   22   24 2
  38   22   27 1
  39   24   25 1
  40   24   41 1
  41   25   26 1
  42   25   42 1
  43   26   27 2
  44   27   43 1
  45   28   29 1
  46   28   30 1
  47   28   31 1

#	End of record

