#	Name: ASD03090658
#	Creating user name:	WinNT
#	Creation time:	15. 06. 2019 20:29

#	Modifying user name:	WinNT
#	Modification time:	15. 06. 2019 20:29

#	Program:	/corina/corina34_cracker 3.40 0067  02.08.2006

@<TRIPOS>MOLECULE
ASD03090658
  35   36    0    0    0
SMALL
NO_CHARGES


@<TRIPOS>ATOM
   1 N1            -0.0463     1.4100     0.1791 N.am    
   2 C2             0.1092     0.0727     0.2406 C.2     
   3 O3             1.2224    -0.4061     0.3405 O.2     
   4 N4            -0.9694    -0.7341     0.1916 N.am    
   5 C5            -0.8030    -2.1227     0.1464 C.ar    
   6 C6            -1.7326    -2.9552     0.7562 C.ar    
   7 C7            -1.5655    -4.3252     0.7100 C.ar    
   8 C8            -0.4736    -4.8685     0.0577 C.ar    
   9 C9             0.4536    -4.0425    -0.5502 C.ar    
  10 C10            0.2888    -2.6715    -0.5129 C.ar    
  11 C11           -2.5737    -5.2292     1.3713 C.3     
  12 F12           -3.5791    -5.5557     0.4549 F       
  13 F13           -1.9388    -6.3986     1.8033 F       
  14 F14           -3.1391    -4.5725     2.4696 F       
  15 C15            1.0618     2.2524     0.3417 C.ar    
  16 C16            1.1227     3.4595    -0.3414 C.ar    
  17 C17            2.2149     4.2892    -0.1808 C.ar    
  18 C18            3.2513     3.9165     0.6627 C.ar    
  19 C19            3.1910     2.7106     1.3455 C.ar    
  20 C20            2.0965     1.8828     1.1905 C.ar    
  21 O21            4.3269     4.7334     0.8198 O.3     
  22 C22            5.3571     4.2869     1.7036 C.3     
  23 H23           -0.9244     1.7893     0.0182 H       
  24 H24           -1.8610    -0.3520     0.1875 H       
  25 H25           -2.5851    -2.5315     1.2663 H       
  26 H26           -0.3448    -5.9403     0.0236 H       
  27 H27            1.3051    -4.4698    -1.0588 H       
  28 H28            1.0111    -2.0270    -0.9918 H       
  29 H29            0.3163     3.7495    -0.9987 H       
  30 H30            2.2625     5.2282    -0.7121 H       
  31 H31            3.9984     2.4208     2.0018 H       
  32 H32            2.0477     0.9460     1.7256 H       
  33 H33            4.9444     4.1505     2.7032 H       
  34 H34            5.7589     3.3395     1.3441 H       
  35 H35            6.1539     5.0299     1.7377 H       
@<TRIPOS>BOND
   1    1    2 am
   2    1   15 1
   3    1   23 1
   4    2    3 2
   5    2    4 am
   6    4    5 1
   7    4   24 1
   8    5    6 ar
   9    5   10 ar
  10    6    7 ar
  11    6   25 1
  12    7    8 ar
  13    7   11 1
  14    8    9 ar
  15    8   26 1
  16    9   10 ar
  17    9   27 1
  18   10   28 1
  19   11   12 1
  20   11   13 1
  21   11   14 1
  22   15   16 ar
  23   15   20 ar
  24   16   17 ar
  25   16   29 1
  26   17   18 ar
  27   17   30 1
  28   18   19 ar
  29   18   21 1
  30   19   20 ar
  31   19   31 1
  32   20   32 1
  33   21   22 1
  34   22   33 1
  35   22   34 1
  36   22   35 1

#	End of record

