#	Name: ASD01900556
#	Creating user name:	WinNT
#	Creation time:	15. 06. 2019 19:52

#	Modifying user name:	WinNT
#	Modification time:	15. 06. 2019 19:52

#	Program:	/corina/corina34_cracker 3.40 0067  02.08.2006

@<TRIPOS>MOLECULE
ASD01900556
  46   48    0    0    0
SMALL
NO_CHARGES


@<TRIPOS>ATOM
   1 C1             0.9851     3.1570     0.7506 C.ar    
   2 C2             2.0487     3.6070     1.5300 C.ar    
   3 C3             3.2478     2.9130     1.4975 C.ar    
   4 C4             3.3417     1.7927     0.6864 C.ar    
   5 C5             2.2432     1.4021    -0.0622 C.ar    
   6 N6             1.1167     2.0791    -0.0126 N.ar    
   7 C7            -0.3052     3.8840     0.7788 C.2     
   8 O8            -0.4328     4.8686     1.4797 O.2     
   9 N9            -1.3378     3.4535     0.0271 N.am    
  10 C10           -2.5849     4.0804     0.1267 C.ar    
  11 C11           -2.6583     5.4515     0.3376 C.ar    
  12 C12           -3.8894     6.0697     0.4359 C.ar    
  13 C13           -5.0541     5.3199     0.3238 C.ar    
  14 C14           -4.9801     3.9501     0.1136 C.ar    
  15 C15           -3.7494     3.3327     0.0091 C.ar    
  16 C16           -6.9723     6.1165     1.5712 C.2     
  17 N17           -8.1469     6.7482     1.3949 N.am    
  18 C18           -8.2629     7.0275    -0.0469 C.3     
  19 C19           -6.9830     6.4565    -0.6245 C.2     
  20 N20           -6.3054     5.9479     0.4236 N.am    
  21 O21           -6.6405     6.4566    -1.7875 O.2     
  22 O22           -6.5606     5.7451     2.6527 O.2     
  23 C23           -9.4832     6.3174    -0.6363 C.3     
  24 C24           -8.3416     8.5346    -0.2986 C.3     
  25 C25           -9.5860     9.1019     0.3874 C.3     
  26 C26           -7.0928     9.2123     0.2688 C.3     
  27 Cl27          -3.9820     7.7830     0.7000 Cl      
  28 H28            1.9404     4.4844     2.1504 H       
  29 H29            4.0901     3.2379     2.0903 H       
  30 H30            4.2623     1.2300     0.6383 H       
  31 H31            2.3129     0.5298    -0.6951 H       
  32 H32           -1.2164     2.7092    -0.5829 H       
  33 H33           -1.7530     6.0338     0.4250 H       
  34 H34           -5.8853     3.3675     0.0268 H       
  35 H35           -3.6923     2.2675    -0.1593 H       
  36 H36           -8.7919     6.9752     2.0829 H       
  37 H37          -10.3863     6.6775    -0.1435 H       
  38 H38           -9.5443     6.5261    -1.7043 H       
  39 H39           -9.3885     5.2427    -0.4809 H       
  40 H40           -8.4009     8.7213    -1.3708 H       
  41 H41          -10.4757     8.6191    -0.0168 H       
  42 H42           -9.5267     8.9152     1.4597 H       
  43 H43           -9.6421    10.1756     0.2081 H       
  44 H44           -6.2062     8.8082    -0.2199 H       
  45 H45           -7.1488    10.2860     0.0895 H       
  46 H46           -7.0335     9.0257     1.3411 H       
@<TRIPOS>BOND
   1    1    2 ar
   2    1    6 ar
   3    1    7 1
   4    2    3 ar
   5    2   28 1
   6    3    4 ar
   7    3   29 1
   8    4    5 ar
   9    4   30 1
  10    5    6 ar
  11    5   31 1
  12    7    8 2
  13    7    9 am
  14    9   10 1
  15    9   32 1
  16   10   11 ar
  17   10   15 ar
  18   11   12 ar
  19   11   33 1
  20   12   13 ar
  21   12   27 1
  22   13   14 ar
  23   13   20 1
  24   14   15 ar
  25   14   34 1
  26   15   35 1
  27   16   17 am
  28   16   20 am
  29   16   22 2
  30   17   18 1
  31   17   36 1
  32   18   19 1
  33   18   23 1
  34   18   24 1
  35   19   20 am
  36   19   21 2
  37   23   37 1
  38   23   38 1
  39   23   39 1
  40   24   25 1
  41   24   26 1
  42   24   40 1
  43   25   41 1
  44   25   42 1
  45   25   43 1
  46   26   44 1
  47   26   45 1
  48   26   46 1

#	End of record

