#	Name: ASD01670003
#	Creating user name:	WinNT
#	Creation time:	15. 06. 2019 19:22

#	Modifying user name:	WinNT
#	Modification time:	15. 06. 2019 19:22

#	Program:	/corina/corina34_cracker 3.40 0067  02.08.2006

@<TRIPOS>MOLECULE
ASD01670003
  31   33    0    0    0
SMALL
NO_CHARGES


@<TRIPOS>ATOM
   1 C1             0.0457     1.3005    -0.5182 C.ar    
   2 C2             0.0611    -0.0693    -0.3178 C.ar    
   3 C3             1.3061     5.3437     0.6275 C.ar    
   4 C4             1.2143     2.0285    -0.4127 C.ar    
   5 C5             2.1930     4.2909     0.7168 C.ar    
   6 C6             1.5187     6.3604    -0.2835 C.ar    
   7 C7             1.2383    -0.7220    -0.0110 C.ar    
   8 C8             3.5382     5.2729    -1.0404 C.ar    
   9 C9             2.4050     1.3803    -0.1046 C.ar    
  10 C10            3.3181     4.2469    -0.1175 C.ar    
  11 C11            2.6361     6.3310    -1.1227 C.ar    
  12 C12            2.4248    -0.0059     0.1000 C.ar    
  13 C13            3.7976     1.8496     0.0786 C.2     
  14 C14            4.5713     0.6346     0.3934 C.2     
  15 C15            4.2628     3.1267    -0.0218 C.2     
  16 C16            2.8596     7.4200    -2.0959 C.2     
  17 N17            3.7229    -0.4076     0.3933 N.am    
  18 O18            3.8311     7.3934    -2.8246 O.2     
  19 O19            5.7670     0.5847     0.6157 O.2     
  20 O20            1.9860     8.4424    -2.1751 O.3     
  21 H21           -0.8806     1.7996    -0.7617 H       
  22 H22           -0.8565    -0.6325    -0.4019 H       
  23 H23            0.4383     5.3709     1.2699 H       
  24 H24            1.2034     3.0970    -0.5692 H       
  25 H25            2.0202     3.4995     1.4310 H       
  26 H26            0.8193     7.1808    -0.3473 H       
  27 H27            1.2375    -1.7909     0.1435 H       
  28 H28            4.4033     5.2456    -1.6863 H       
  29 H29            5.3262     3.3149    -0.0311 H       
  30 H30            3.9837    -1.3245     0.5731 H       
  31 H31            2.1744     9.1313    -2.8270 H       
@<TRIPOS>BOND
   1    1    2 ar
   2    1    4 ar
   3    1   21 1
   4    2    7 ar
   5    2   22 1
   6    3    5 ar
   7    3    6 ar
   8    3   23 1
   9    4    9 ar
  10    4   24 1
  11    5   10 ar
  12    5   25 1
  13    6   11 ar
  14    6   26 1
  15    7   12 ar
  16    7   27 1
  17    8   10 ar
  18    8   11 ar
  19    8   28 1
  20    9   12 ar
  21    9   13 1
  22   10   15 1
  23   11   16 1
  24   12   17 1
  25   13   14 1
  26   13   15 2
  27   14   17 am
  28   14   19 2
  29   15   29 1
  30   16   18 2
  31   16   20 1
  32   17   30 1
  33   20   31 1

#	End of record

