#	Name: ASD05430306
#	Creating user name:	WinNT
#	Creation time:	15. 06. 2019 21:00

#	Modifying user name:	WinNT
#	Modification time:	15. 06. 2019 21:00

#	Program:	/corina/corina34_cracker 3.40 0067  02.08.2006

@<TRIPOS>MOLECULE
ASD05430306
  55   60    0    0    0
SMALL
NO_CHARGES


@<TRIPOS>ATOM
   1 C1             1.2840    -0.6895    -0.4961 C.ar    
   2 C2             0.0806    -0.0375    -0.2538 C.ar    
   3 C3             0.0578     1.3383    -0.0571 C.ar    
   4 C4             1.2290     2.0621    -0.1019 C.ar    
   5 C5             2.4424     1.4105    -0.3454 C.ar    
   6 C6             2.4603     0.0258    -0.5424 C.ar    
   7 O7             2.4884     4.2420    -0.4313 O.3     
   8 C8             3.6627     3.5282    -0.3586 C.2     
   9 C9             3.6963     2.1793    -0.3947 C.2     
  10 C10            2.5516     5.4350    -1.2246 C.3     
  11 C11            3.6198     6.4549    -0.8010 C.3     
  12 N12            4.8568     5.7204    -0.5375 N.pl3   
  13 C13            4.8888     4.3544    -0.2380 C.2     
  14 C14            6.2447     6.1766    -0.5413 C.3     
  15 O15            6.9365     5.1306     0.1738 O.3     
  16 N16            6.0690     4.0049     0.1445 N.2     
  17 C17            6.7638     6.2902    -1.9515 C.ar    
  18 C18            6.3765     7.5120     0.1938 C.3     
  19 N19           -1.1133    -0.7693    -0.2082 N.pl3   
  20 C20           -2.3688    -0.2675     0.0193 C.2     
  21 C21           -3.2193    -1.3106    -0.0224 C.2     
  22 N22           -2.5083    -2.4211    -0.2683 N.2     
  23 C23           -1.2464    -2.1094    -0.3870 C.2     
  24 C24           -4.7119    -1.2423     0.1738 C.3     
  25 C25            5.8816     6.4784    -2.9991 C.ar    
  26 C26            6.3564     6.5832    -4.2927 C.ar    
  27 C27            7.7163     6.4996    -4.5393 C.ar    
  28 C28            8.5989     6.3111    -3.4893 C.ar    
  29 C29            8.1222     6.2119    -2.1959 C.ar    
  30 C30            2.2553     5.3062    -2.7184 C.3     
  31 C31            1.2413     5.9797    -1.7907 C.3     
  32 F32            8.1817     6.6015    -5.8035 F       
  33 H33            1.2974    -1.7593    -0.6439 H       
  34 H34           -0.8796     1.8406     0.1308 H       
  35 H35            1.2102     3.1312     0.0503 H       
  36 H36            3.3950    -0.4817    -0.7303 H       
  37 H37            4.6433     1.6643    -0.4598 H       
  38 H38            3.7815     7.1751    -1.6030 H       
  39 H39            3.2982     6.9729     0.1025 H       
  40 H40            6.0476     7.3925     1.2261 H       
  41 H41            7.4179     7.8335     0.1792 H       
  42 H42            5.7579     8.2612    -0.3003 H       
  43 H43           -2.6261     0.7661     0.1983 H       
  44 H44           -0.4421    -2.8018    -0.5870 H       
  45 H45           -5.1979    -1.0825    -0.7887 H       
  46 H46           -5.0645    -2.1778     0.6080 H       
  47 H47           -4.9528    -0.4170     0.8439 H       
  48 H48            4.8208     6.5432    -2.8066 H       
  49 H49            5.6670     6.7298    -5.1110 H       
  50 H50            9.6599     6.2458    -3.6804 H       
  51 H51            8.8104     6.0649    -1.3767 H       
  52 H52            2.8164     5.9456    -3.3998 H       
  53 H53            2.0085     4.3151    -3.0990 H       
  54 H54            0.3275     5.4316    -1.5613 H       
  55 H55            1.1353     7.0621    -1.8621 H       
@<TRIPOS>BOND
   1    1    2 ar
   2    1    6 ar
   3    1   33 1
   4    2    3 ar
   5    2   19 1
   6    3    4 ar
   7    3   34 1
   8    4    5 ar
   9    4   35 1
  10    5    6 ar
  11    5    9 1
  12    6   36 1
  13    7    8 1
  14    7   10 1
  15    8    9 2
  16    8   13 1
  17    9   37 1
  18   10   11 1
  19   10   30 1
  20   10   31 1
  21   11   12 1
  22   11   38 1
  23   11   39 1
  24   12   13 1
  25   12   14 1
  26   13   16 2
  27   14   15 1
  28   14   17 1
  29   14   18 1
  30   15   16 1
  31   17   25 ar
  32   17   29 ar
  33   18   40 1
  34   18   41 1
  35   18   42 1
  36   19   20 1
  37   19   23 1
  38   20   21 2
  39   20   43 1
  40   21   22 1
  41   21   24 1
  42   22   23 2
  43   23   44 1
  44   24   45 1
  45   24   46 1
  46   24   47 1
  47   25   26 ar
  48   25   48 1
  49   26   27 ar
  50   26   49 1
  51   27   28 ar
  52   27   32 1
  53   28   29 ar
  54   28   50 1
  55   29   51 1
  56   30   31 1
  57   30   52 1
  58   30   53 1
  59   31   54 1
  60   31   55 1

#	End of record

