#	Name: ASD01901284
#	Creating user name:	WinNT
#	Creation time:	15. 06. 2019 19:53

#	Modifying user name:	WinNT
#	Modification time:	15. 06. 2019 19:53

#	Program:	/corina/corina34_cracker 3.40 0067  02.08.2006

@<TRIPOS>MOLECULE
ASD01901284
  43   46    0    0    0
SMALL
NO_CHARGES


@<TRIPOS>ATOM
   1 C1            -0.0166     1.3750     0.0096 C.ar    
   2 C2             0.0021    -0.0041     0.0020 C.ar    
   3 C3             1.2078    -0.6830    -0.0127 C.ar    
   4 C4             2.4027     0.0149    -0.0199 C.ar    
   5 C5             2.3997     1.3941    -0.0124 C.ar    
   6 C6             1.1860     2.0866     0.0019 C.ar    
   7 C7             1.1748     3.5185     0.0097 C.1     
   8 C8             1.1656     4.6925     0.0161 C.1     
   9 C9             1.1543     6.1244     0.0239 C.ar    
  10 C10           -0.0678     8.1952     0.0530 C.ar    
  11 C11           -0.0607     6.8154     0.0451 C.ar    
  12 C12            2.3584     6.8345     0.0162 C.ar    
  13 C13            2.3438     8.2143     0.0243 C.ar    
  14 C14            1.1325     8.8988     0.0400 C.ar    
  15 N15            1.1215    10.3006     0.0477 N.am    
  16 N16            1.0826    12.3115    -1.1794 N.am    
  17 C17            1.0944    10.9689    -1.1171 C.2     
  18 C18            1.1327    10.9602     1.2265 C.2     
  19 C19            1.0529    12.9745    -2.4855 C.3     
  20 O20            1.1526    10.3522     2.2805 O.2     
  21 O21            1.0805    10.3351    -2.1547 O.2     
  22 F22           -1.2416     8.8638     0.0730 F       
  23 C23            1.0984    13.0722    -0.0306 C.2     
  24 F24            3.5070     8.9014     0.0173 F       
  25 N25            1.1092    14.5861     1.6042 N.2     
  26 N26            1.0931    14.3940     0.2169 N.pl3   
  27 C27            1.1208    12.4257     1.2059 C.2     
  28 C28            1.1267    13.4249     2.1992 C.2     
  29 C29            1.0711    15.4542    -0.7939 C.3     
  30 H30           -0.9584     1.9035     0.0169 H       
  31 H31           -0.9266    -0.5554     0.0079 H       
  32 H32            1.2163    -1.7630    -0.0182 H       
  33 H33            3.3399    -0.5217    -0.0310 H       
  34 H34            3.3331     1.9374    -0.0174 H       
  35 H35           -0.9927     6.2699     0.0548 H       
  36 H36            3.2989     6.3039     0.0044 H       
  37 H37            1.0442    12.2226    -3.2746 H       
  38 H38            0.1565    13.5901    -2.5602 H       
  39 H39            1.9361    13.6042    -2.5934 H       
  40 H40            1.1429    13.2588     3.2662 H       
  41 H41            2.0932    15.7262    -1.0575 H       
  42 H42            0.5492    15.0984    -1.6823 H       
  43 H43            0.5545    16.3267    -0.3941 H       
@<TRIPOS>BOND
   1    1    2 ar
   2    1    6 ar
   3    1   30 1
   4    2    3 ar
   5    2   31 1
   6    3    4 ar
   7    3   32 1
   8    4    5 ar
   9    4   33 1
  10    5    6 ar
  11    5   34 1
  12    6    7 1
  13    7    8 3
  14    8    9 1
  15    9   12 ar
  16    9   11 ar
  17   10   11 ar
  18   10   14 ar
  19   10   22 1
  20   11   35 1
  21   12   13 ar
  22   12   36 1
  23   13   14 ar
  24   13   24 1
  25   14   15 1
  26   15   18 am
  27   15   17 am
  28   16   17 am
  29   16   23 1
  30   16   19 1
  31   17   21 2
  32   18   27 1
  33   18   20 2
  34   19   37 1
  35   19   38 1
  36   19   39 1
  37   23   27 2
  38   23   26 1
  39   25   26 1
  40   25   28 2
  41   26   29 1
  42   27   28 1
  43   28   40 1
  44   29   41 1
  45   29   42 1
  46   29   43 1

#	End of record

