#	Name: ASD09116161
#	Creating user name:	WinNT
#	Creation time:	15. 06. 2019 21:20

#	Modifying user name:	WinNT
#	Modification time:	15. 06. 2019 21:20

#	Program:	/corina/corina34_cracker 3.40 0067  02.08.2006

@<TRIPOS>MOLECULE
ASD09116161
  75   82    0    0    0
SMALL
NO_CHARGES


@<TRIPOS>ATOM
   1 N1            -0.0267     1.4810     0.1065 N.2     
   2 C2            -0.0143     0.0100     0.1938 C.3     
   3 C3             1.2222     1.8594     0.0825 C.2     
   4 N4             2.0839     0.8238     0.1429 N.2     
   5 C5             1.4643    -0.3256     0.2119 C.2     
   6 N6             1.6189     3.1796     0.0037 N.pl3   
   7 C7             2.9746     3.5091     0.0981 C.ar    
   8 C8             3.4698     4.6165    -0.5780 C.ar    
   9 C9             3.8273     2.7322     0.8733 C.ar    
  10 C10            5.1657     3.0669     0.9594 C.ar    
  11 C11            5.6527     4.1583     0.2865 C.ar    
  12 C12            4.8098     4.9410    -0.4834 C.ar    
  13 N13            2.0274    -1.5616     0.2846 N.pl3   
  14 C14           -0.6800    -0.4528     1.4641 C.ar    
  15 C15           -1.3073     0.4693     2.2743 C.ar    
  16 N16           -0.6566    -1.7363     1.7787 N.ar    
  17 C17           -1.2221    -2.1921     2.8751 C.ar    
  18 C18           -1.8681    -1.3319     3.7473 C.ar    
  19 C19           -1.9238     0.0279     3.4554 C.ar    
  20 C20           -1.3372    -3.6024     3.4604 C.3     
  21 C21           -2.8483    -3.9627     3.3015 C.3     
  22 C22           -3.5684    -2.9995     4.2756 C.3     
  23 C23           -2.4090    -2.1657     4.9079 C.3     
  24 C24           -1.2882    -3.2664     4.9963 C.3     
  25 C25           -2.6039     0.9757     4.3614 C.2     
  26 C26           -2.0760     2.1283     4.8216 C.2     
  27 C27            6.0933     2.2174     1.8034 C.3     
  28 C28            6.4911     3.0203     3.0444 C.3     
  29 C29            7.6828     3.9112     2.7543 C.3     
  30 C30            7.3961     5.0487     1.7942 C.3     
  31 C31            7.1206     4.5193     0.3851 C.3     
  32 N32            8.1587     4.4802     4.0222 N.3     
  33 C33            9.3915     5.2633     3.8202 C.3     
  34 C34            9.1196     6.6881     4.3468 C.3     
  35 C35            7.9419     6.4768     5.3343 C.3     
  36 C36            7.1353     5.3606     4.6251 C.3     
  37 C37           -2.9036     2.8483     5.6566 C.2     
  38 C38           -4.1000     2.2961     5.8824 C.2     
  39 S39           -4.2305     0.7797     5.0013 S.3     
  40 H40           -0.5005    -0.4310    -0.6764 H       
  41 H41            0.9572     3.8785    -0.1172 H       
  42 H42            2.8080     5.2236    -1.1779 H       
  43 H43            3.4467     1.8728     1.4052 H       
  44 H44            5.1984     5.7993    -1.0113 H       
  45 H45            2.9929    -1.6552     0.2886 H       
  46 H46            1.4635    -2.3494     0.3324 H       
  47 H47           -1.3238     1.5149     2.0047 H       
  48 H48           -0.6249    -4.3385     3.0877 H       
  49 H49           -3.1773    -3.7867     2.2773 H       
  50 H50           -3.0261    -4.9992     3.5881 H       
  51 H51           -4.2547    -2.3495     3.7327 H       
  52 H52           -4.0995    -3.5603     5.0447 H       
  53 H53           -2.6489    -1.6222     5.8217 H       
  54 H54           -1.5855    -4.1125     5.6158 H       
  55 H55           -0.3258    -2.8550     5.3005 H       
  56 H56           -1.0831     2.4608     4.5571 H       
  57 H57            5.5799     1.3049     2.1065 H       
  58 H58            6.9845     1.9662     1.2284 H       
  59 H59            5.6492     3.6385     3.3561 H       
  60 H60            6.7463     2.3317     3.8498 H       
  61 H61            8.4795     3.2970     2.3345 H       
  62 H62            6.5255     5.6028     2.1452 H       
  63 H63            8.2566     5.7172     1.7638 H       
  64 H64            7.7287     3.6336     0.2012 H       
  65 H65            7.3585     5.2895    -0.3486 H       
  66 H66           10.2127     4.8124     4.3774 H       
  67 H67            9.6372     5.3009     2.7589 H       
  68 H68            9.9935     7.0799     4.8674 H       
  69 H69            8.8258     7.3504     3.5326 H       
  70 H70            8.3028     6.1404     6.3062 H       
  71 H71            7.3476     7.3852     5.4333 H       
  72 H72            6.4976     5.7868     3.8507 H       
  73 H73            6.5368     4.8068     5.3484 H       
  74 H74           -2.6071     3.7892     6.0962 H       
  75 H75           -4.8714     2.7192     6.5087 H       
@<TRIPOS>BOND
   1    1    2 1
   2    1    3 2
   3    2   14 1
   4    2    5 1
   5    2   40 1
   6    3    4 1
   7    3    6 1
   8    4    5 2
   9    5   13 1
  10    6    7 1
  11    6   41 1
  12    7    8 ar
  13    7    9 ar
  14    8   12 ar
  15    8   42 1
  16    9   10 ar
  17    9   43 1
  18   10   11 ar
  19   10   27 1
  20   11   12 ar
  21   11   31 1
  22   12   44 1
  23   13   45 1
  24   13   46 1
  25   14   15 ar
  26   14   16 ar
  27   15   19 ar
  28   15   47 1
  29   16   17 ar
  30   17   18 ar
  31   17   20 1
  32   18   19 ar
  33   18   23 1
  34   19   25 1
  35   20   21 1
  36   20   24 1
  37   20   48 1
  38   21   22 1
  39   21   49 1
  40   21   50 1
  41   22   23 1
  42   22   51 1
  43   22   52 1
  44   23   24 1
  45   23   53 1
  46   24   54 1
  47   24   55 1
  48   25   26 2
  49   25   39 1
  50   26   37 1
  51   26   56 1
  52   27   28 1
  53   27   57 1
  54   27   58 1
  55   28   29 1
  56   28   59 1
  57   28   60 1
  58   29   30 1
  59   29   32 1
  60   29   61 1
  61   30   31 1
  62   30   62 1
  63   30   63 1
  64   31   64 1
  65   31   65 1
  66   32   33 1
  67   32   36 1
  68   33   34 1
  69   33   66 1
  70   33   67 1
  71   34   35 1
  72   34   68 1
  73   34   69 1
  74   35   36 1
  75   35   70 1
  76   35   71 1
  77   36   72 1
  78   36   73 1
  79   37   38 2
  80   37   74 1
  81   38   39 1
  82   38   75 1

#	End of record

