#	Name: ASD01028685
#	Creating user name:	WinNT
#	Creation time:	15. 06. 2019 18:57

#	Modifying user name:	WinNT
#	Modification time:	15. 06. 2019 18:57

#	Program:	/corina/corina34_cracker 3.40 0067  02.08.2006

@<TRIPOS>MOLECULE
ASD01028685
  31   33    0    0    0
SMALL
NO_CHARGES


@<TRIPOS>ATOM
   1 C1            -0.0184     1.5028     0.0103 C.2     
   2 C2             0.0021    -0.0041     0.0020 C.3     
   3 N3             2.9843    -1.8129    -4.4062 N.ar    
   4 C4             4.2744    -2.0234    -4.3076 C.ar    
   5 C5             4.9629    -1.8114    -3.1150 C.ar    
   6 C6             4.2920    -1.3724    -2.0094 C.ar    
   7 C7             2.9067    -1.1470    -2.1190 C.ar    
   8 C8             2.1506    -0.6957    -1.0257 C.ar    
   9 C9             0.8126    -0.4890    -1.1723 C.ar    
  10 C10            0.1831    -0.7204    -2.3934 C.ar    
  11 C11            0.8855    -1.1586    -3.4737 C.ar    
  12 C12            2.2686    -1.3831    -3.3621 C.ar    
  13 F13            0.5772    -0.4692     1.1895 F       
  14 F14           -1.3065    -0.4876    -0.1030 F       
  15 C15            1.2474     2.2567     0.0023 C.ar    
  16 C16            1.2228     3.6545     0.0100 C.ar    
  17 C17            2.4260     4.3496     0.0027 C.ar    
  18 C18            3.6063     3.6266    -0.0120 C.ar    
  19 C19            3.5562     2.2383    -0.0190 C.ar    
  20 N20            2.4056     1.6027    -0.0068 N.ar    
  21 F21            0.0468     4.3195     0.0239 F       
  22 Cl22           5.0351     1.3294    -0.0380 Cl      
  23 O23           -1.0764     2.0946     0.0185 O.2     
  24 H24            4.8180    -2.3707    -5.1738 H       
  25 H25            6.0261    -1.9945    -3.0648 H       
  26 H26            4.8097    -1.2032    -1.0768 H       
  27 H27            2.6273    -0.5131    -0.0739 H       
  28 H28           -0.8794    -0.5497    -2.4841 H       
  29 H29            0.3820    -1.3334    -4.4131 H       
  30 H30            2.4400     5.4295     0.0080 H       
  31 H31            4.5578     4.1373    -0.0183 H       
@<TRIPOS>BOND
   1    1    2 1
   2    1   15 1
   3    1   23 2
   4    2    9 1
   5    2   13 1
   6    2   14 1
   7    3    4 ar
   8    3   12 ar
   9    4    5 ar
  10    4   24 1
  11    5    6 ar
  12    5   25 1
  13    6    7 ar
  14    6   26 1
  15    7    8 ar
  16    7   12 ar
  17    8    9 ar
  18    8   27 1
  19    9   10 ar
  20   10   11 ar
  21   10   28 1
  22   11   12 ar
  23   11   29 1
  24   15   16 ar
  25   15   20 ar
  26   16   17 ar
  27   16   21 1
  28   17   18 ar
  29   17   30 1
  30   18   19 ar
  31   18   31 1
  32   19   20 ar
  33   19   22 1

#	End of record

