#	Name: ASD09116341
#	Creating user name:	WinNT
#	Creation time:	15. 06. 2019 21:21

#	Modifying user name:	WinNT
#	Modification time:	15. 06. 2019 21:21

#	Program:	/corina/corina34_cracker 3.40 0067  02.08.2006

@<TRIPOS>MOLECULE
ASD09116341
  77   83    0    0    0
SMALL
NO_CHARGES


@<TRIPOS>ATOM
   1 N1            -0.0760     1.5366    -0.4032 N.2     
   2 N2            -0.1085     0.2177    -0.8841 N.pl3   
   3 C3             1.1828     1.9038    -0.3775 C.2     
   4 N4             1.9414     0.8915    -0.8143 N.2     
   5 C5             1.1767    -0.1335    -1.1241 C.2     
   6 N6             1.6091    -1.3534    -1.6084 N.pl3   
   7 C7            -1.2418    -0.5747    -1.0759 C.ar    
   8 N8             1.6549     3.1487     0.0382 N.pl3   
   9 C9             3.0331     3.3863     0.1107 C.ar    
  10 C10            3.5298     4.6649    -0.1076 C.ar    
  11 C11            3.9026     2.3449     0.4065 C.ar    
  12 C12            5.2616     2.5792     0.4780 C.ar    
  13 C13            5.7586     3.8564     0.2545 C.ar    
  14 C14            4.8884     4.8992    -0.0361 C.ar    
  15 N15            7.1361     4.0940     0.3274 N.3     
  16 C16            7.8628     3.2835    -0.6582 C.3     
  17 C17            7.6400     3.8558     1.6860 C.3     
  18 C18            9.1130     4.2634     1.7639 C.3     
  19 C19            9.9181     3.4457     0.7501 C.3     
  20 C20            9.3425     3.6740    -0.6503 C.3     
  21 N21           11.3231     3.8737     0.7791 N.3     
  22 C22            5.4278     6.2853    -0.2786 C.3     
  23 N23           -1.2175    -1.5627    -1.9580 N.ar    
  24 N24           -2.2360    -2.3152    -2.1794 N.ar    
  25 C25           -3.3785    -2.1441    -1.5338 C.ar    
  26 C26           -3.4905    -1.1393    -0.5686 C.ar    
  27 C27           -2.3996    -0.3295    -0.3334 C.ar    
  28 C28           -4.5699    -2.9745    -1.8256 C.ar    
  29 C29           -5.7931    -2.3424    -2.0545 C.ar    
  30 C30           -5.8584    -0.8397    -2.0546 C.3     
  31 C31           -5.8303    -0.2811    -0.6345 C.3     
  32 C32           -4.7686    -0.9880     0.2039 C.3     
  33 C33           -4.4848    -4.3617    -1.8692 C.ar    
  34 C34           -5.6192    -5.1088    -2.1210 C.ar    
  35 C35           -6.8336    -4.4794    -2.3263 C.ar    
  36 C36           -6.9208    -3.0984    -2.2927 C.ar    
  37 C37           11.9386     3.5780     2.0859 C.3     
  38 C38           13.1742     2.6927     1.8193 C.3     
  39 C39           13.5159     3.0061     0.3388 C.3     
  40 C40           12.1060     3.1938    -0.2747 C.3     
  41 F41            4.3632     7.1772    -0.4468 F       
  42 F42            6.2009     6.6832     0.8174 F       
  43 F43            6.2202     6.2822    -1.4316 F       
  44 H44            2.5559    -1.5116    -1.7483 H       
  45 H45            0.9660    -2.0514    -1.8084 H       
  46 H46            1.0286     3.8498     0.2771 H       
  47 H47            2.8531     5.4758    -0.3336 H       
  48 H48            3.5160     1.3516     0.5810 H       
  49 H49            5.9379     1.7692     0.7080 H       
  50 H50            7.7644     2.2281    -0.4040 H       
  51 H51            7.4463     3.4584    -1.6502 H       
  52 H52            7.0617     4.4464     2.3966 H       
  53 H53            7.5426     2.7978     1.9292 H       
  54 H54            9.2096     5.3246     1.5343 H       
  55 H55            9.4910     4.0719     2.7681 H       
  56 H56            9.8535     2.3873     1.0024 H       
  57 H57            9.8844     3.0614    -1.3708 H       
  58 H58            9.4426     4.7259    -0.9179 H       
  59 H59           -2.4411     0.4694     0.3922 H       
  60 H60           -5.0070    -0.4458    -2.6096 H       
  61 H61           -6.7792    -0.5228    -2.5442 H       
  62 H62           -5.6063     0.7850    -0.6726 H       
  63 H63           -6.8070    -0.4255    -0.1726 H       
  64 H64           -5.1346    -1.9746     0.4881 H       
  65 H65           -4.5761    -0.4049     1.1045 H       
  66 H66           -3.5365    -4.8526    -1.7073 H       
  67 H67           -5.5576    -6.1864    -2.1581 H       
  68 H68           -7.7188    -5.0689    -2.5142 H       
  69 H69           -7.8724    -2.6133    -2.4526 H       
  70 H70           12.2445     4.5054     2.5701 H       
  71 H71           11.2290     3.0438     2.7176 H       
  72 H72           13.9991     2.9752     2.4734 H       
  73 H73           12.9267     1.6383     1.9428 H       
  74 H74           14.1017     3.9218     0.2587 H       
  75 H75           14.0363     2.1695    -0.1273 H       
  76 H76           11.6633     2.2263    -0.5117 H       
  77 H77           12.1606     3.8161    -1.1680 H       
@<TRIPOS>BOND
   1    1    2 1
   2    1    3 2
   3    2    7 1
   4    2    5 1
   5    3    4 1
   6    3    8 1
   7    4    5 2
   8    5    6 1
   9    6   44 1
  10    6   45 1
  11    7   23 ar
  12    7   27 ar
  13    8    9 1
  14    8   46 1
  15    9   10 ar
  16    9   11 ar
  17   10   14 ar
  18   10   47 1
  19   11   12 ar
  20   11   48 1
  21   12   13 ar
  22   12   49 1
  23   13   14 ar
  24   13   15 1
  25   14   22 1
  26   15   17 1
  27   15   16 1
  28   16   20 1
  29   16   50 1
  30   16   51 1
  31   17   18 1
  32   17   52 1
  33   17   53 1
  34   18   19 1
  35   18   54 1
  36   18   55 1
  37   19   20 1
  38   19   21 1
  39   19   56 1
  40   20   57 1
  41   20   58 1
  42   21   37 1
  43   21   40 1
  44   22   41 1
  45   22   42 1
  46   22   43 1
  47   23   24 ar
  48   24   25 ar
  49   25   26 ar
  50   25   28 1
  51   26   27 ar
  52   26   32 1
  53   27   59 1
  54   28   29 ar
  55   28   33 ar
  56   29   30 1
  57   29   36 ar
  58   30   31 1
  59   30   60 1
  60   30   61 1
  61   31   32 1
  62   31   62 1
  63   31   63 1
  64   32   64 1
  65   32   65 1
  66   33   34 ar
  67   33   66 1
  68   34   35 ar
  69   34   67 1
  70   35   36 ar
  71   35   68 1
  72   36   69 1
  73   37   38 1
  74   37   70 1
  75   37   71 1
  76   38   39 1
  77   38   72 1
  78   38   73 1
  79   39   40 1
  80   39   74 1
  81   39   75 1
  82   40   76 1
  83   40   77 1

#	End of record

