#	Name: ASD01885440
#	Creating user name:	WinNT
#	Creation time:	15. 06. 2019 19:49

#	Modifying user name:	WinNT
#	Modification time:	15. 06. 2019 19:49

#	Program:	/corina/corina34_cracker 3.40 0067  02.08.2006

@<TRIPOS>MOLECULE
ASD01885440
  60   63    0    0    0
SMALL
NO_CHARGES


@<TRIPOS>ATOM
   1 C1             0.2237     1.1282    -0.0058 C.ar    
   2 C2             0.3467    -0.2623    -0.0243 C.ar    
   3 N3            -0.7094    -1.1127    -0.0187 N.2     
   4 C4            -1.7957    -0.9822    -0.6907 C.2     
   5 C5            -2.0409     0.2102    -1.5777 C.3     
   6 C6            -2.0656     1.4435    -0.7106 C.2     
   7 N7            -0.9956     1.7942     0.0027 N.am    
   8 C8             1.3721     1.9153    -0.0010 C.ar    
   9 C9             2.6340     1.3251    -0.0194 C.ar    
  10 C10            2.7481    -0.0685    -0.0434 C.ar    
  11 C11            1.6289    -0.8432    -0.0459 C.ar    
  12 C12           -2.8289    -2.0264    -0.5921 C.ar    
  13 O13           -3.0687     2.1236    -0.6628 O.2     
  14 C14           -2.5795    -3.1935     0.1379 C.ar    
  15 C15           -3.5477    -4.1729     0.2308 C.ar    
  16 C16           -4.7677    -4.0090    -0.3947 C.ar    
  17 C17           -5.0314    -2.8486    -1.1281 C.ar    
  18 C18           -4.0625    -1.8522    -1.2220 C.ar    
  19 C19           -6.2973    -2.6819    -1.7765 C.1     
  20 N20           -7.3015    -2.5495    -2.2909 N.1     
  21 C21            3.8459     2.1676    -0.0141 C.2     
  22 O22            3.7441     3.3791     0.0063 O.2     
  23 N23            5.0654     1.5941    -0.0320 N.am    
  24 C24            6.2106     2.3893    -0.1408 C.ar    
  25 C25            7.3776     2.0226     0.5171 C.ar    
  26 C26            8.5069     2.8099     0.4072 C.ar    
  27 C27            8.4767     3.9622    -0.3568 C.ar    
  28 C28            7.3164     4.3301    -1.0130 C.ar    
  29 C29            6.1851     3.5444    -0.9116 C.ar    
  30 H30           -1.2401     0.2930    -2.3125 H       
  31 H31           -2.9982     0.0992    -2.0869 H       
  32 H32           -1.0744     2.5740     0.5743 H       
  33 H33            1.2840     2.9916     0.0168 H       
  34 H34            3.7243    -0.5302    -0.0603 H       
  35 H35            1.7259    -1.9186    -0.0643 H       
  36 H36           -1.6273    -3.3286     0.6295 H       
  37 H37           -3.3498    -5.0721     0.7954 H       
  38 H38           -5.5202    -4.7798    -0.3175 H       
  39 H39           -4.2612    -0.9536    -1.7871 H       
  40 H40            5.1488     0.6297     0.0306 H       
  41 H41            7.4017     1.1230     1.1142 H       
  42 H42            9.4146     2.5256     0.9188 H       
  43 H43            9.3611     4.5763    -0.4408 H       
  44 H44            7.2961     5.2306    -1.6089 H       
  45 H45            5.2793     3.8321    -1.4246 H       
  46 C46           18.9394    15.4666     6.1341 C.2     
  47 N47           18.9577    14.1190     6.1267 N.am    
  48 O48           19.9815    16.0873     6.1275 O.2     
  49 C49           17.7556    13.4030     6.1344 C.ar    
  50 C50           17.7727    12.0144     6.1267 C.ar    
  51 C51           16.5844    11.3105     6.1348 C.ar    
  52 C52           15.3785    11.9870     6.1500 C.ar    
  53 C53           15.3580    13.3697     6.1576 C.ar    
  54 C54           16.5429    14.0793     6.1554 C.ar    
  55 H55           19.8042    13.6455     6.1161 H       
  56 H56           18.7142    11.4854     6.1142 H       
  57 H57           16.5971    10.2306     6.1289 H       
  58 H58           14.4506    11.4344     6.1555 H       
  59 H59           14.4146    13.8951     6.1694 H       
  60 H60           16.5263    15.1592     6.1655 H       
@<TRIPOS>BOND
   1    1    2 ar
   2    1    8 ar
   3    1    7 1
   4    2    3 1
   5    2   11 ar
   6    3    4 2
   7    4    5 1
   8    4   12 1
   9    5    6 1
  10    5   30 1
  11    5   31 1
  12    6    7 am
  13    6   13 2
  14    7   32 1
  15    8    9 ar
  16    8   33 1
  17    9   10 ar
  18    9   21 1
  19   10   11 ar
  20   10   34 1
  21   11   35 1
  22   12   14 ar
  23   12   18 ar
  24   14   15 ar
  25   14   36 1
  26   15   16 ar
  27   15   37 1
  28   16   17 ar
  29   16   38 1
  30   17   18 ar
  31   17   19 1
  32   18   39 1
  33   19   20 3
  34   21   22 2
  35   21   23 am
  36   23   24 1
  37   23   40 1
  38   24   25 ar
  39   24   29 ar
  40   25   26 ar
  41   25   41 1
  42   26   27 ar
  43   26   42 1
  44   27   28 ar
  45   27   43 1
  46   28   29 ar
  47   28   44 1
  48   29   45 1
  49   46   47 am
  50   46   48 2
  51   47   49 1
  52   47   55 1
  53   49   50 ar
  54   49   54 ar
  55   50   51 ar
  56   50   56 1
  57   51   52 ar
  58   51   57 1
  59   52   53 ar
  60   52   58 1
  61   53   54 ar
  62   53   59 1
  63   54   60 1

#	End of record

