#	Name: ASD09120017
#	Creating user name:	WinNT
#	Creation time:	15. 06. 2019 21:21

#	Modifying user name:	WinNT
#	Modification time:	15. 06. 2019 21:21

#	Program:	/corina/corina34_cracker 3.40 0067  02.08.2006

@<TRIPOS>MOLECULE
ASD09120017
  32   34    0    0    0
SMALL
NO_CHARGES


@<TRIPOS>ATOM
   1 C1            -0.0532     1.3754    -0.0160 C.ar    
   2 C2            -0.0525    -0.0035    -0.0309 C.ar    
   3 C3             1.1253    -0.7011     0.1744 C.ar    
   4 C4             2.3092    -0.0221     0.3959 C.ar    
   5 C5             2.3237     1.3592     0.4132 C.ar    
   6 C6             1.1382     2.0689     0.2066 C.ar    
   7 N7            -1.3149    -0.7396    -0.2668 N.pl3   
   8 O8            -2.3523    -0.1274    -0.4472 O.2     
   9 O9            -1.3162    -1.9575    -0.2803 O.2     
  10 C10            1.1449     3.5462     0.2235 C.2     
  11 O11            2.1839     4.1472     0.4175 O.2     
  12 N12           -0.0006     4.2277     0.0238 N.am    
  13 C13           -0.0137     5.6237     0.1367 C.ar    
  14 Cl14           3.8106     2.2107     0.6919 Cl      
  15 C15            1.0893     6.3649    -0.2838 C.ar    
  16 C16           -1.1229     6.2622     0.6597 C.ar    
  17 C17           -0.0120     8.3978     0.3490 C.ar    
  18 C18            1.0922     7.7377    -0.1797 C.ar    
  19 N19           -0.3014     9.7270     0.5746 N.pl3   
  20 C20           -1.1294     7.6538     0.7694 C.ar    
  21 C21           -2.1049     8.6301     1.2608 C.2     
  22 C22           -1.5516     9.8447     1.1175 C.2     
  23 H23           -0.9725     1.9179    -0.1805 H       
  24 H24            1.1194    -1.7810     0.1618 H       
  25 H25            3.2244    -0.5727     0.5561 H       
  26 H26           -0.8159     3.7514    -0.1980 H       
  27 H27            1.9496     5.8576    -0.6948 H       
  28 H28           -1.9792     5.6878     0.9810 H       
  29 H29            1.9524     8.3022    -0.5083 H       
  30 H30            0.2910    10.4683     0.3735 H       
  31 H31           -3.0840     8.4137     1.6620 H       
  32 H32           -2.0233    10.7770     1.3910 H       
@<TRIPOS>BOND
   1    1    2 ar
   2    1    6 ar
   3    1   23 1
   4    2    3 ar
   5    2    7 1
   6    3    4 ar
   7    3   24 1
   8    4    5 ar
   9    4   25 1
  10    5    6 ar
  11    5   14 1
  12    6   10 1
  13    7    8 2
  14    7    9 2
  15   10   11 2
  16   10   12 am
  17   12   13 1
  18   12   26 1
  19   13   16 ar
  20   13   15 ar
  21   15   18 ar
  22   15   27 1
  23   16   20 ar
  24   16   28 1
  25   17   18 ar
  26   17   20 ar
  27   17   19 1
  28   18   29 1
  29   19   22 1
  30   19   30 1
  31   20   21 1
  32   21   22 2
  33   21   31 1
  34   22   32 1

#	End of record

