#	Name: ASD01190014
#	Creating user name:	WinNT
#	Creation time:	15. 06. 2019 19:07

#	Modifying user name:	WinNT
#	Modification time:	15. 06. 2019 19:07

#	Program:	/corina/corina34_cracker 3.40 0067  02.08.2006

@<TRIPOS>MOLECULE
ASD01190014
  74   77    0    0    0
SMALL
NO_CHARGES


@<TRIPOS>ATOM
   1 C1            -0.0187     1.5249     0.0104 C.3     
   2 C2             0.0021    -0.0041     0.0020 C.3     
   3 C3             0.7375    -0.5080    -1.2433 C.3     
   4 C4             2.1676     0.0301    -1.2290 C.3     
   5 C5             2.1263     1.5614    -1.2554 C.3     
   6 C6             1.4146     2.0644    -0.0004 C.3     
   7 C7             2.9198    -0.4413    -2.4514 C.2     
   8 C8             4.2900     0.1492    -2.7061 C.3     
   9 C9             4.1945     1.6775    -2.6521 C.3     
  10 C10            3.5521     2.1059    -1.3227 C.3     
  11 C11            5.5877     2.2782    -2.6977 C.3     
  12 C12            5.4231     3.8214    -2.7207 C.3     
  13 C13            4.9222     4.2379    -1.3509 C.3     
  14 C14            3.5247     3.6240    -1.1731 C.3     
  15 C15            6.3793     2.0309    -3.9865 C.3     
  16 C16            7.4176     3.1861    -3.9835 C.3     
  17 C17            6.8112     4.3161    -3.1148 C.3     
  18 C18            6.7027     5.6085    -3.9265 C.3     
  19 C19            6.0690     6.7013    -3.0632 C.3     
  20 C20            8.0989     6.0525    -4.3675 C.3     
  21 C21            7.9806     7.2733    -5.2822 C.3     
  22 C22            9.3768     7.7173    -5.7232 C.3     
  23 C23            9.2585     8.9380    -6.6379 C.3     
  24 C24            8.6907    10.1167    -5.8446 C.3     
  25 C25           10.6417     9.3062    -7.1785 C.3     
  26 C26            1.3580     2.0262    -2.4942 C.3     
  27 C27            4.4025     4.2188    -3.7891 C.3     
  28 O28            2.4444    -1.2616    -3.1994 O.2     
  29 H29           -0.5478     1.8848    -0.8719 H       
  30 H30           -0.5308     1.8752     0.9065 H       
  31 H31            0.5131    -0.3642     0.8949 H       
  32 H32           -1.0210    -0.3801    -0.0046 H       
  33 H33            0.7579    -1.5978    -1.2387 H       
  34 H34            0.2240    -0.1553    -2.1377 H       
  35 H35            2.6760    -0.3065    -0.3255 H       
  36 H36            1.3940     3.1542    -0.0048 H       
  37 H37            1.9437     1.7119     0.8850 H       
  38 H38            4.9851    -0.1998    -1.9424 H       
  39 H39            4.6428    -0.1594    -3.6902 H       
  40 H40            3.5969     2.0417    -3.4877 H       
  41 H41            4.1302     1.6877    -0.4987 H       
  42 H42            6.1612     1.9699    -1.8235 H       
  43 H43            5.5941     3.8613    -0.5795 H       
  44 H44            4.8606     5.3246    -1.2926 H       
  45 H45            2.8543     4.0430    -1.9235 H       
  46 H46            3.1488     3.8767    -0.1817 H       
  47 H47            6.8792     1.0629    -3.9524 H       
  48 H48            5.7284     2.0996    -4.8581 H       
  49 H49            8.3570     2.8437    -3.5496 H       
  50 H50            7.5827     3.5433    -5.0000 H       
  51 H51            7.4211     4.4776    -2.2259 H       
  52 H52            6.0823     5.4344    -4.8056 H       
  53 H53            6.6895     6.8753    -2.1841 H       
  54 H54            5.9917     7.6220    -3.6415 H       
  55 H55            5.0744     6.3849    -2.7490 H       
  56 H56            8.6917     6.3118    -3.4903 H       
  57 H57            8.5850     5.2398    -4.9072 H       
  58 H58            7.3879     7.0140    -6.1594 H       
  59 H59            7.4945     8.0860    -4.7425 H       
  60 H60            9.9696     7.9766    -4.8460 H       
  61 H61            9.8629     6.9046    -6.2629 H       
  62 H62            8.5934     8.7058    -7.4696 H       
  63 H63            7.7054     9.8544    -5.4594 H       
  64 H64            9.3559    10.3489    -5.0128 H       
  65 H65            8.6065    10.9864    -6.4962 H       
  66 H66           11.0462     8.4665    -7.7436 H       
  67 H67           10.5575    10.1759    -7.8301 H       
  68 H68           11.3068     9.5384    -6.3467 H       
  69 H69            0.3414     1.6347    -2.4594 H       
  70 H70            1.3273     3.1156    -2.5152 H       
  71 H71            1.8581     1.6595    -3.3907 H       
  72 H72            3.4413     3.7575    -3.5627 H       
  73 H73            4.2916     5.3031    -3.8001 H       
  74 H74            4.7477     3.8789    -4.7655 H       
@<TRIPOS>BOND
   1    1    2 1
   2    1    6 1
   3    1   29 1
   4    1   30 1
   5    2    3 1
   6    2   31 1
   7    2   32 1
   8    3    4 1
   9    3   33 1
  10    3   34 1
  11    4    5 1
  12    4    7 1
  13    4   35 1
  14    5    6 1
  15    5   26 1
  16    5   10 1
  17    6   36 1
  18    6   37 1
  19    7    8 1
  20    7   28 2
  21    8    9 1
  22    8   38 1
  23    8   39 1
  24    9   10 1
  25    9   11 1
  26    9   40 1
  27   10   14 1
  28   10   41 1
  29   11   12 1
  30   11   15 1
  31   11   42 1
  32   12   13 1
  33   12   27 1
  34   12   17 1
  35   13   14 1
  36   13   43 1
  37   13   44 1
  38   14   45 1
  39   14   46 1
  40   15   16 1
  41   15   47 1
  42   15   48 1
  43   16   17 1
  44   16   49 1
  45   16   50 1
  46   17   18 1
  47   17   51 1
  48   18   19 1
  49   18   20 1
  50   18   52 1
  51   19   53 1
  52   19   54 1
  53   19   55 1
  54   20   21 1
  55   20   56 1
  56   20   57 1
  57   21   22 1
  58   21   58 1
  59   21   59 1
  60   22   23 1
  61   22   60 1
  62   22   61 1
  63   23   24 1
  64   23   25 1
  65   23   62 1
  66   24   63 1
  67   24   64 1
  68   24   65 1
  69   25   66 1
  70   25   67 1
  71   25   68 1
  72   26   69 1
  73   26   70 1
  74   26   71 1
  75   27   72 1
  76   27   73 1
  77   27   74 1

#	End of record

