#	Name: ASD02198789
#	Creating user name:	WinNT
#	Creation time:	15. 06. 2019 20:20

#	Modifying user name:	WinNT
#	Modification time:	15. 06. 2019 20:20

#	Program:	/corina/corina34_cracker 3.40 0067  02.08.2006

@<TRIPOS>MOLECULE
ASD02198789
  46   50    0    0    0
SMALL
NO_CHARGES


@<TRIPOS>ATOM
   1 F1             2.2532    -1.7088     2.4709 F       
   2 C2            -0.0433     1.5018    -0.1148 C.2     
   3 C3            -0.0731     0.1622     0.0976 C.2     
   4 N4             1.0715    -0.5396     0.2600 N.pl3   
   5 N5             2.2360    -0.0049     0.2263 N.2     
   6 C6             2.4077     1.2843     0.0281 C.2     
   7 C7             1.2218     2.1357    -0.1604 C.2     
   8 C8             0.9800    -1.9175     0.4759 C.ar    
   9 C9             1.5814    -2.4875     1.5948 C.ar    
  10 C10            1.4915    -3.8484     1.8088 C.ar    
  11 C11            0.7978    -4.6505     0.9038 C.ar    
  12 C12            0.1963    -4.0761    -0.2158 C.ar    
  13 C13            0.2839    -2.7165    -0.4238 C.ar    
  14 C14            3.7647     1.8664    -0.0041 C.2     
  15 N15            4.3070     2.6064    -1.0171 N.pl3   
  16 N16            5.6090     2.9575    -0.6391 N.2     
  17 C17            5.8525     2.4577     0.5462 C.2     
  18 C18            4.7202     1.7707     0.9838 C.2     
  19 C19            3.6741     2.9518    -2.2179 C.ar    
  20 C20            3.8085     4.2351    -2.7312 C.ar    
  21 C21            3.1835     4.5724    -3.9158 C.ar    
  22 C22            2.4245     3.6338    -4.5905 C.ar    
  23 C23            2.2884     2.3552    -4.0816 C.ar    
  24 C24            2.9155     2.0100    -2.9005 C.ar    
  25 O25            1.3249     3.3387    -0.3482 O.2     
  26 C26            0.7001    -6.1123     1.1309 C.ar    
  27 N27            1.2735    -6.6616     2.1976 N.ar    
  28 C28            0.0015    -6.9155     0.2293 C.ar    
  29 N29           -0.0828    -8.2163     0.4364 N.ar    
  30 C30            0.4935    -8.7577     1.4960 C.ar    
  31 C31            1.1835    -7.9636     2.3959 C.ar    
  32 H32           -0.9546     2.0655    -0.2494 H       
  33 H33           -1.0229    -0.3502     0.1380 H       
  34 H34            1.9583    -4.2913     2.6762 H       
  35 H35           -0.3414    -4.6963    -0.9178 H       
  36 H36           -0.1822    -2.2723    -1.2910 H       
  37 H37            6.7762     2.5631     1.0959 H       
  38 H38            4.6140     1.2514     1.9248 H       
  39 H39            4.4008     4.9687    -2.2046 H       
  40 H40            3.2874     5.5704    -4.3153 H       
  41 H41            1.9368     3.9000    -5.5166 H       
  42 H42            1.6946     1.6245    -4.6107 H       
  43 H43            2.8090     1.0112    -2.5038 H       
  44 H44           -0.4697    -6.4738    -0.6363 H       
  45 H45            0.4220    -9.8224     1.6623 H       
  46 H46            1.6527    -8.4109     3.2598 H       
@<TRIPOS>BOND
   1    1    9 1
   2    2    3 2
   3    2    7 1
   4    2   32 1
   5    3    4 1
   6    3   33 1
   7    4    5 1
   8    4    8 1
   9    5    6 2
  10    6    7 1
  11    6   14 1
  12    7   25 2
  13    8    9 ar
  14    8   13 ar
  15    9   10 ar
  16   10   11 ar
  17   10   34 1
  18   11   12 ar
  19   11   26 1
  20   12   13 ar
  21   12   35 1
  22   13   36 1
  23   14   15 1
  24   14   18 2
  25   15   16 1
  26   15   19 1
  27   16   17 2
  28   17   18 1
  29   17   37 1
  30   18   38 1
  31   19   20 ar
  32   19   24 ar
  33   20   21 ar
  34   20   39 1
  35   21   22 ar
  36   21   40 1
  37   22   23 ar
  38   22   41 1
  39   23   24 ar
  40   23   42 1
  41   24   43 1
  42   26   27 ar
  43   26   28 ar
  44   27   31 ar
  45   28   29 ar
  46   28   44 1
  47   29   30 ar
  48   30   31 ar
  49   30   45 1
  50   31   46 1

#	End of record

