#	Name: ASD01811860
#	Creating user name:	WinNT
#	Creation time:	15. 06. 2019 19:27

#	Modifying user name:	WinNT
#	Modification time:	15. 06. 2019 19:27

#	Program:	/corina/corina34_cracker 3.40 0067  02.08.2006

@<TRIPOS>MOLECULE
ASD01811860
  65   70    0    0    0
SMALL
NO_CHARGES


@<TRIPOS>ATOM
   1 N1            -0.0158     1.3124     0.0093 N.ar    
   2 C2             0.0021    -0.0041     0.0020 C.ar    
   3 C3             1.1968    -0.7055    -0.0132 C.ar    
   4 C4             2.3959    -0.0149    -0.0209 C.ar    
   5 C5             1.1067     2.0194     0.0023 C.ar    
   6 C6             1.4022     3.4636     0.0068 C.2     
   7 C7             2.3561     1.3764    -0.0130 C.ar    
   8 N8             3.3288     2.3533    -0.0175 N.pl3   
   9 C9             2.7617     3.5823    -0.0058 C.2     
  10 C10            0.4245     4.5603     0.0214 C.2     
  11 O11           -0.7668     4.3132     0.0313 O.2     
  12 N12            0.8473     5.8400     0.0239 N.am    
  13 C13           -0.1275     6.9335     0.0384 C.3     
  14 C14           -0.9345     9.6191     0.8868 C.3     
  15 C15           -0.5147     9.3293    -0.5556 C.3     
  16 C16            0.5033     8.1872    -0.5708 C.3     
  17 C17           -0.5472     7.2234     1.4809 C.3     
  18 C18           -1.5653     8.3654     1.4961 C.3     
  19 O19            0.8954     7.9165    -1.9181 O.3     
  20 C20            4.7713     2.0977    -0.0324 C.3     
  21 C21            5.2309     1.8949    -1.4532 C.ar    
  22 C22            5.6493     0.4379    -3.3067 C.ar    
  23 C23            5.2286     0.6269    -2.0048 C.ar    
  24 C24            5.6487     2.9781    -2.2044 C.ar    
  25 C25            6.0701     2.7955    -3.5070 C.ar    
  26 C26            6.0743     1.5227    -4.0618 C.ar    
  27 N27            6.5018     1.3341    -5.3832 N.pl3   
  28 C28            6.9370     2.3002    -6.2198 C.2     
  29 C29            7.2563     1.7049    -7.4063 C.2     
  30 C30            7.0007     0.3253    -7.2716 C.2     
  31 N31            6.5570     0.1105    -6.0614 N.2     
  32 C32            7.7773     2.3861    -8.6168 C.ar    
  33 C33            8.0685     1.6639    -9.7777 C.ar    
  34 C34            8.5507     2.3366   -10.8809 C.ar    
  35 N35            8.7378     3.6425   -10.8496 N.ar    
  36 C36            8.4755     4.3609    -9.7742 C.ar    
  37 C37            7.9848     3.7685    -8.6294 C.ar    
  38 H38           -0.9315    -0.5470     0.0084 H       
  39 H39            1.1923    -1.7855    -0.0186 H       
  40 H40            3.3386    -0.5419    -0.0324 H       
  41 H41            3.3036     4.5165    -0.0066 H       
  42 H42            1.7971     6.0370     0.0160 H       
  43 H43           -1.0031     6.6475    -0.5443 H       
  44 H44           -0.0589     9.9051     1.4696 H       
  45 H45           -1.6598    10.4327     0.8977 H       
  46 H46           -1.3903     9.0432    -1.1383 H       
  47 H47           -0.0653    10.2224    -0.9897 H       
  48 H48            1.3790     8.4733     0.0119 H       
  49 H49           -0.9966     6.3302     1.9150 H       
  50 H50            0.3284     7.5094     2.0636 H       
  51 H51           -1.8643     8.5719     2.5238 H       
  52 H52           -2.4409     8.0794     0.9134 H       
  53 H53            1.3039     8.6690    -2.3676 H       
  54 H54            5.2957     2.9493     0.4011 H       
  55 H55            4.9877     1.2026     0.5508 H       
  56 H56            5.6476    -0.5528    -3.7368 H       
  57 H57            4.8979    -0.2165    -1.4169 H       
  58 H58            5.6452     3.9678    -1.7723 H       
  59 H59            6.3956     3.6419    -4.0935 H       
  60 H60            7.0173     3.3528    -5.9921 H       
  61 H61            7.1503    -0.4245    -8.0343 H       
  62 H62            7.9185     0.5948    -9.8101 H       
  63 H63            8.7786     1.7872   -11.7824 H       
  64 H64            8.6433     5.4276    -9.7922 H       
  65 H65            7.7680     4.3632    -7.7544 H       
@<TRIPOS>BOND
   1    1    2 ar
   2    1    5 ar
   3    2    3 ar
   4    2   38 1
   5    3    4 ar
   6    3   39 1
   7    4    7 ar
   8    4   40 1
   9    5    7 ar
  10    5    6 1
  11    6    9 2
  12    6   10 1
  13    7    8 1
  14    8    9 1
  15    8   20 1
  16    9   41 1
  17   10   11 2
  18   10   12 am
  19   12   13 1
  20   12   42 1
  21   13   17 1
  22   13   16 1
  23   13   43 1
  24   14   15 1
  25   14   18 1
  26   14   44 1
  27   14   45 1
  28   15   16 1
  29   15   46 1
  30   15   47 1
  31   16   19 1
  32   16   48 1
  33   17   18 1
  34   17   49 1
  35   17   50 1
  36   18   51 1
  37   18   52 1
  38   19   53 1
  39   20   21 1
  40   20   54 1
  41   20   55 1
  42   21   24 ar
  43   21   23 ar
  44   22   23 ar
  45   22   26 ar
  46   22   56 1
  47   23   57 1
  48   24   25 ar
  49   24   58 1
  50   25   26 ar
  51   25   59 1
  52   26   27 1
  53   27   28 1
  54   27   31 1
  55   28   29 2
  56   28   60 1
  57   29   30 1
  58   29   32 1
  59   30   31 2
  60   30   61 1
  61   32   33 ar
  62   32   37 ar
  63   33   34 ar
  64   33   62 1
  65   34   35 ar
  66   34   63 1
  67   35   36 ar
  68   36   37 ar
  69   36   64 1
  70   37   65 1

#	End of record

