#	Name: ASD01915039
#	Creating user name:	WinNT
#	Creation time:	15. 06. 2019 20:04

#	Modifying user name:	WinNT
#	Modification time:	15. 06. 2019 20:04

#	Program:	/corina/corina34_cracker 3.40 0067  02.08.2006

@<TRIPOS>MOLECULE
ASD01915039
  31   33    0    0    0
SMALL
NO_CHARGES


@<TRIPOS>ATOM
   1 C1            -0.0180     1.4737     0.0101 C.2     
   2 C2             0.0021    -0.0041     0.0020 C.ar    
   3 C3             1.2186    -0.6887    -0.0133 C.ar    
   4 C4             1.2302    -2.0681    -0.0203 C.ar    
   5 C5             0.0396    -2.7731    -0.0127 C.ar    
   6 C6            -1.1696    -2.1008     0.0020 C.ar    
   7 C7            -1.1954    -0.7216     0.0154 C.ar    
   8 O8             1.0263     2.0957     0.0035 O.2     
   9 N9            -1.1942     2.1316     0.0193 N.am    
  10 N10            0.0597    -4.2531    -0.0208 N.pl3   
  11 O11            1.1226    -4.8477    -0.0342 O.2     
  12 O12           -0.9867    -4.8764    -0.0142 O.2     
  13 C13           -1.2130     3.5150     0.0269 C.2     
  14 N14           -0.1061     4.3141     0.0260 N.pl3   
  15 C15           -0.5471     5.6263     0.0352 C.ar    
  16 C16           -1.9509     5.5662     0.0416 C.ar    
  17 N17           -2.2945     4.2520     0.0304 N.2     
  18 C18           -2.6898     6.7518     0.0515 C.ar    
  19 C19           -2.0371     7.9643     0.0550 C.ar    
  20 C20           -0.6513     8.0178     0.0487 C.ar    
  21 C21            0.0931     6.8562     0.0389 C.ar    
  22 H22            2.1486    -0.1396    -0.0199 H       
  23 H23            2.1706    -2.5990    -0.0321 H       
  24 H24           -2.0953    -2.6570     0.0075 H       
  25 H25           -2.1399    -0.1980     0.0318 H       
  26 H26           -2.0276     1.6352     0.0206 H       
  27 H27            0.8175     4.0176     0.0203 H       
  28 H28           -3.7692     6.7175     0.0561 H       
  29 H29           -2.6088     8.8805     0.0623 H       
  30 H30           -0.1515     8.9752     0.0512 H       
  31 H31            1.1720     6.9047     0.0344 H       
@<TRIPOS>BOND
   1    1    2 1
   2    1    8 2
   3    1    9 am
   4    2    3 ar
   5    2    7 ar
   6    3    4 ar
   7    3   22 1
   8    4    5 ar
   9    4   23 1
  10    5    6 ar
  11    5   10 1
  12    6    7 ar
  13    6   24 1
  14    7   25 1
  15    9   13 1
  16    9   26 1
  17   10   11 2
  18   10   12 2
  19   13   14 1
  20   13   17 2
  21   14   15 1
  22   14   27 1
  23   15   16 ar
  24   15   21 ar
  25   16   17 1
  26   16   18 ar
  27   18   19 ar
  28   18   28 1
  29   19   20 ar
  30   19   29 1
  31   20   21 ar
  32   20   30 1
  33   21   31 1

#	End of record

