#	Name: ASD01918559
#	Creating user name:	WinNT
#	Creation time:	15. 06. 2019 20:11

#	Modifying user name:	WinNT
#	Modification time:	15. 06. 2019 20:11

#	Program:	/corina/corina34_cracker 3.40 0067  02.08.2006

@<TRIPOS>MOLECULE
ASD01918559
  45   47    0    0    0
SMALL
NO_CHARGES


@<TRIPOS>ATOM
   1 C1             1.1509    -0.3813    -0.4797 C.ar    
   2 C2             0.0043    -0.0408     0.2263 C.ar    
   3 C3             0.0646     0.9978     1.1530 C.ar    
   4 C4             1.2730     1.6505     1.3317 C.ar    
   5 C5             2.3711     1.2536     0.5910 C.ar    
   6 N6             2.2812     0.2664    -0.2786 N.ar    
   7 C7             3.6892     1.9592     0.7802 C.3     
   8 N8            -1.1926    -0.7297     0.0100 N.pl3   
   9 C9            -2.4092    -0.0654     0.1306 C.ar    
  10 N10           -2.4253     1.2421     0.3371 N.ar    
  11 C11           -3.5571     1.9101     0.4572 C.ar    
  12 C12           -4.7737     1.2638     0.3716 C.ar    
  13 C13           -4.8018    -0.1078     0.1556 C.ar    
  14 C14           -3.5994    -0.7808     0.0275 C.ar    
  15 Cl15          -3.5750    -2.4954    -0.2436 Cl      
  16 C16           -6.0586     2.0387     0.5116 C.3     
  17 C17           -6.3435     2.2904     1.9936 C.3     
  18 N18           -5.9342     3.3208    -0.1864 N.am    
  19 C19           -7.6873     2.9564     2.1408 C.2     
  20 C20           -8.6009     2.4243     2.9143 C.2     
  21 C21           -7.0361     3.9517    -0.6382 C.2     
  22 O22           -8.1337     3.4568    -0.4666 O.2     
  23 C23           -6.9111     5.2404    -1.3398 C.2     
  24 N24           -7.9016     5.9421    -1.8204 N.2     
  25 C25           -7.5750     7.0620    -2.4098 C.2     
  26 C26           -6.2629     7.3431    -2.4432 C.2     
  27 S27           -5.4019     6.0893    -1.6602 S.3     
  28 H28            1.1172    -1.1876    -1.1974 H       
  29 H29           -0.8094     1.2870     1.7177 H       
  30 H30            1.3565     2.4604     2.0413 H       
  31 H31            4.2607     1.4582     1.5615 H       
  32 H32            4.2514     1.9352    -0.1533 H       
  33 H33            3.5088     2.9946     1.0692 H       
  34 H34           -1.1751    -1.6708    -0.2243 H       
  35 H35           -3.5310     2.9767     0.6251 H       
  36 H36           -5.7409    -0.6366     0.0848 H       
  37 H37           -6.8775     1.4660     0.0763 H       
  38 H38           -6.3479     1.3410     2.5291 H       
  39 H39           -5.5700     2.9374     2.4075 H       
  40 H40           -5.0588     3.7155    -0.3233 H       
  41 H41           -7.8971     3.8725     1.6085 H       
  42 H42           -9.5639     2.9017     3.0197 H       
  43 H43           -8.3910     1.5083     3.4465 H       
  44 H44           -8.3142     7.7195    -2.8430 H       
  45 H45           -5.8217     8.2223    -2.8891 H       
@<TRIPOS>BOND
   1    1    2 ar
   2    1    6 ar
   3    1   28 1
   4    2    3 ar
   5    2    8 1
   6    3    4 ar
   7    3   29 1
   8    4    5 ar
   9    4   30 1
  10    5    6 ar
  11    5    7 1
  12    7   31 1
  13    7   32 1
  14    7   33 1
  15    8    9 1
  16    8   34 1
  17    9   10 ar
  18    9   14 ar
  19   10   11 ar
  20   11   12 ar
  21   11   35 1
  22   12   13 ar
  23   12   16 1
  24   13   14 ar
  25   13   36 1
  26   14   15 1
  27   16   17 1
  28   16   18 1
  29   16   37 1
  30   17   19 1
  31   17   38 1
  32   17   39 1
  33   18   21 am
  34   18   40 1
  35   19   20 2
  36   19   41 1
  37   20   42 1
  38   20   43 1
  39   21   22 2
  40   21   23 1
  41   23   24 2
  42   23   27 1
  43   24   25 1
  44   25   26 2
  45   25   44 1
  46   26   27 1
  47   26   45 1

#	End of record

