#	Name: ASD01410528
#	Creating user name:	WinNT
#	Creation time:	15. 06. 2019 19:18

#	Modifying user name:	WinNT
#	Modification time:	15. 06. 2019 19:18

#	Program:	/corina/corina34_cracker 3.40 0067  02.08.2006

@<TRIPOS>MOLECULE
ASD01410528
  81   84    0    0    0
SMALL
NO_CHARGES


@<TRIPOS>ATOM
   1 C1             2.5240     4.4590    -3.8879 C.ar    
   2 C2             3.5298     4.2153    -4.8210 C.ar    
   3 C3             4.5611     3.3477    -4.4919 C.ar    
   4 N4             4.5950     2.7574    -3.3125 N.ar    
   5 C5             3.6574     2.9658    -2.4035 C.ar    
   6 C6             2.5946     3.8216    -2.6618 C.ar    
   7 O7             3.7347     2.3356    -1.2035 O.3     
   8 C8             4.7306     1.4272    -1.0224 C.ar    
   9 C9             6.0130     1.8592    -0.6934 C.ar    
  10 C10            7.0318     0.9432    -0.5073 C.ar    
  11 C11            6.7816    -0.4139    -0.6471 C.ar    
  12 C12            5.4907    -0.8548    -0.9782 C.ar    
  13 C13            4.4656     0.0785    -1.1598 C.ar    
  14 F14            6.2628     3.1798    -0.5558 F       
  15 N15            7.8092    -1.3372    -0.4599 N.am    
  16 C16            8.0459    -1.8424     0.7670 C.2     
  17 C17            8.6318    -1.7583    -1.5967 C.3     
  18 O18            8.9767    -2.6000     0.9415 O.2     
  19 C19            7.1540    -1.4659     1.9219 C.3     
  20 C20            7.9005    -1.6932     3.2379 C.3     
  21 C21            8.2908    -3.1680     3.3547 C.3     
  22 C22            7.0292    -4.0331     3.3279 C.3     
  23 C23            6.2827    -3.8058     2.0118 C.3     
  24 C24            5.8924    -2.3310     1.8951 C.3     
  25 N25            3.4997     4.8374    -6.0745 N.3     
  26 C26            8.0089    -1.2426    -2.8956 C.3     
  27 C27           10.0425    -1.1858    -1.4452 C.3     
  28 C28            7.4195    -5.5079     3.4446 C.3     
  29 C29            6.1533    -1.5835    -4.3739 C.3     
  30 O30            6.7630    -1.9047    -3.1221 O.3     
  31 O31           10.6855    -1.7943    -0.3234 O.3     
  32 C32           12.0161    -1.3273    -0.0924 C.3     
  33 C33            4.6546     4.4349    -6.8903 C.3     
  34 C34            4.5508     5.0897    -8.2703 C.3     
  35 O35            4.4666     6.5088    -8.1139 O.3     
  36 C36            3.3528     6.9361    -7.3251 C.3     
  37 C37            3.4445     6.3000    -5.9356 C.3     
  38 C38            5.2163    -2.2938    -1.1286 C.2     
  39 O39            6.0913    -3.1062    -0.9022 O.2     
  40 O40            3.9947    -2.7098    -1.5172 O.3     
  41 C41            1.5312     4.0531    -1.6194 C.3     
  42 F42            0.5779     4.9483    -2.1166 F       
  43 F43            0.9118     2.8382    -1.3072 F       
  44 F44            2.1165     4.5879    -0.4668 F       
  45 H45            1.7111     5.1329    -4.1146 H       
  46 H46            5.3447     3.1531    -5.2091 H       
  47 H47            8.0242     1.2850    -0.2530 H       
  48 H48            3.4701    -0.2541    -1.4142 H       
  49 H49            8.6824    -2.8467    -1.6251 H       
  50 H50            6.8759    -0.4152     1.8387 H       
  51 H51            8.7993    -1.0769     3.2570 H       
  52 H52            7.2554    -1.4209     4.0733 H       
  53 H53            8.9359    -3.4403     2.5194 H       
  54 H54            8.8226    -3.3300     4.2923 H       
  55 H55            6.3841    -3.7608     4.1632 H       
  56 H56            6.9278    -4.0781     1.1765 H       
  57 H57            5.3839    -4.4221     1.9927 H       
  58 H58            5.2473    -2.0587     2.7304 H       
  59 H59            5.3606    -2.1691     0.9575 H       
  60 H60            7.8405    -0.1686    -2.8164 H       
  61 H61            8.6840    -1.4442    -3.7273 H       
  62 H62           10.6169    -1.3911    -2.3486 H       
  63 H63            9.9828    -0.1087    -1.2895 H       
  64 H64            7.9513    -5.6699     4.3822 H       
  65 H65            6.5207    -6.1243     3.4255 H       
  66 H66            8.0646    -5.7802     2.6093 H       
  67 H67            5.2585    -2.1912    -4.5088 H       
  68 H68            5.8808    -0.5282    -4.3852 H       
  69 H69            6.8554    -1.7861    -5.1827 H       
  70 H70           12.4346    -1.8371     0.7754 H       
  71 H71           12.6314    -1.5354    -0.9677 H       
  72 H72           11.9974    -0.2530     0.0914 H       
  73 H73            5.5747     4.7573    -6.4028 H       
  74 H74            4.6614     3.3506    -7.0015 H       
  75 H75            5.4336     4.8401    -8.8589 H       
  76 H76            3.6583     4.7261    -8.7795 H       
  77 H77            3.3692     8.0218    -7.2302 H       
  78 H78            2.4254     6.6261    -7.8069 H       
  79 H79            2.5680     6.5771    -5.3499 H       
  80 H80            4.3452     6.6521    -5.4328 H       
  81 H81            3.8622    -3.6639    -1.6020 H       
@<TRIPOS>BOND
   1    1    2 ar
   2    1    6 ar
   3    1   45 1
   4    2    3 ar
   5    2   25 1
   6    3    4 ar
   7    3   46 1
   8    4    5 ar
   9    5    6 ar
  10    5    7 1
  11    6   41 1
  12    7    8 1
  13    8    9 ar
  14    8   13 ar
  15    9   10 ar
  16    9   14 1
  17   10   11 ar
  18   10   47 1
  19   11   12 ar
  20   11   15 1
  21   12   13 ar
  22   12   38 1
  23   13   48 1
  24   15   16 am
  25   15   17 1
  26   16   18 2
  27   16   19 1
  28   17   27 1
  29   17   26 1
  30   17   49 1
  31   19   20 1
  32   19   24 1
  33   19   50 1
  34   20   21 1
  35   20   51 1
  36   20   52 1
  37   21   22 1
  38   21   53 1
  39   21   54 1
  40   22   23 1
  41   22   28 1
  42   22   55 1
  43   23   24 1
  44   23   56 1
  45   23   57 1
  46   24   58 1
  47   24   59 1
  48   25   33 1
  49   25   37 1
  50   26   30 1
  51   26   60 1
  52   26   61 1
  53   27   31 1
  54   27   62 1
  55   27   63 1
  56   28   64 1
  57   28   65 1
  58   28   66 1
  59   29   30 1
  60   29   67 1
  61   29   68 1
  62   29   69 1
  63   31   32 1
  64   32   70 1
  65   32   71 1
  66   32   72 1
  67   33   34 1
  68   33   73 1
  69   33   74 1
  70   34   35 1
  71   34   75 1
  72   34   76 1
  73   35   36 1
  74   36   37 1
  75   36   77 1
  76   36   78 1
  77   37   79 1
  78   37   80 1
  79   38   39 2
  80   38   40 1
  81   40   81 1
  82   41   42 1
  83   41   43 1
  84   41   44 1

#	End of record

