#	Name: ASD01915445
#	Creating user name:	WinNT
#	Creation time:	15. 06. 2019 20:05

#	Modifying user name:	WinNT
#	Modification time:	15. 06. 2019 20:05

#	Program:	/corina/corina34_cracker 3.40 0067  02.08.2006

@<TRIPOS>MOLECULE
ASD01915445
  38   41    0    0    0
SMALL
NO_CHARGES


@<TRIPOS>ATOM
   1 N1             0.0514     1.4256     0.4844 N.pl3   
   2 N2             0.0982     0.0385     0.6650 N.2     
   3 C3             1.2825    -0.4060     0.3569 C.2     
   4 C4             2.0812     0.6874    -0.0470 C.ar    
   5 C5             1.2782     1.8422     0.0418 C.ar    
   6 N6             1.7688     3.0327    -0.2803 N.ar    
   7 C7             3.4175     0.8073    -0.4817 C.ar    
   8 C8             3.8894     2.0904    -0.8096 C.ar    
   9 C9             3.0140     3.1903    -0.6931 C.ar    
  10 C10            5.2368     2.2775    -1.2569 C.1     
  11 N11            6.3057     2.4259    -1.6117 N.1     
  12 C12            3.5001     4.5465    -1.0371 C.ar    
  13 C13            2.6385     5.4699    -1.6289 C.ar    
  14 C14            3.0972     6.7317    -1.9471 C.ar    
  15 C15            4.4089     7.0815    -1.6807 C.ar    
  16 C16            5.2685     6.1698    -1.0942 C.ar    
  17 C17            4.8196     4.9071    -0.7653 C.ar    
  18 C18            4.2947    -0.3789    -0.5888 C.ar    
  19 C19            4.0452    -1.3498    -1.5599 C.ar    
  20 C20            4.8674    -2.4535    -1.6547 C.ar    
  21 C21            5.9372    -2.5994    -0.7895 C.ar    
  22 C22            6.1898    -1.6408     0.1758 C.ar    
  23 C23            5.3789    -0.5292     0.2772 C.ar    
  24 C24            1.7268    -1.8446     0.4204 C.3     
  25 H25           -0.7190     1.9935     0.6417 H       
  26 H26            1.6145     5.1977    -1.8380 H       
  27 H27            2.4310     7.4476    -2.4054 H       
  28 H28            4.7635     8.0703    -1.9319 H       
  29 H29            6.2916     6.4485    -0.8893 H       
  30 H30            5.4902     4.1979    -0.3030 H       
  31 H31            3.2100    -1.2374    -2.2353 H       
  32 H32            4.6754    -3.2055    -2.4057 H       
  33 H33            6.5777    -3.4654    -0.8676 H       
  34 H34            7.0261    -1.7608     0.8486 H       
  35 H35            5.5798     0.2205     1.0281 H       
  36 H36            1.6209    -2.3013    -0.5637 H       
  37 H37            2.7705    -1.8892     0.7312 H       
  38 H38            1.1101    -2.3839     1.1394 H       
@<TRIPOS>BOND
   1    1    2 1
   2    1    5 1
   3    1   25 1
   4    2    3 2
   5    3    4 1
   6    3   24 1
   7    4    7 ar
   8    4    5 ar
   9    5    6 ar
  10    6    9 ar
  11    7    8 ar
  12    7   18 1
  13    8    9 ar
  14    8   10 1
  15    9   12 1
  16   10   11 3
  17   12   13 ar
  18   12   17 ar
  19   13   14 ar
  20   13   26 1
  21   14   15 ar
  22   14   27 1
  23   15   16 ar
  24   15   28 1
  25   16   17 ar
  26   16   29 1
  27   17   30 1
  28   18   19 ar
  29   18   23 ar
  30   19   20 ar
  31   19   31 1
  32   20   21 ar
  33   20   32 1
  34   21   22 ar
  35   21   33 1
  36   22   23 ar
  37   22   34 1
  38   23   35 1
  39   24   36 1
  40   24   37 1
  41   24   38 1

#	End of record

