#	Name: ASD01811459
#	Creating user name:	WinNT
#	Creation time:	15. 06. 2019 19:26

#	Modifying user name:	WinNT
#	Modification time:	15. 06. 2019 19:26

#	Program:	/corina/corina34_cracker 3.40 0067  02.08.2006

@<TRIPOS>MOLECULE
ASD01811459
  18   18    0    0    0
SMALL
NO_CHARGES


@<TRIPOS>ATOM
   1 C1            -0.0187     1.5294     0.0105 C.3     
   2 C2             0.0021    -0.0041     0.0020 C.3     
   3 C3             0.9008    -0.4687     1.1298 C.2     
   4 C4             2.2652     0.1786     1.2514 C.3     
   5 C5             2.0802     1.6988     1.1692 C.3     
   6 O6             1.3235     2.0194     0.0003 O.3     
   7 O7             0.5428    -1.3242     1.9034 O.2     
   8 C8             2.8957    -0.1933     2.5949 C.3     
   9 Br9           -1.8182    -0.6943     0.2762 Br      
  10 H10           -0.5449     1.8911    -0.8730 H       
  11 H11           -0.5279     1.8815     0.9076 H       
  12 H12            0.3923    -0.3617    -0.9508 H       
  13 H13            2.9066    -0.1587     0.4371 H       
  14 H14            1.5489     2.0492     2.0541 H       
  15 H15            3.0559     2.1817     1.1148 H       
  16 H16            3.0030    -1.2761     2.6586 H       
  17 H17            3.8767     0.2746     2.6778 H       
  18 H18            2.2566     0.1568     3.4055 H       
@<TRIPOS>BOND
   1    1    2 1
   2    1    6 1
   3    1   10 1
   4    1   11 1
   5    2    3 1
   6    2    9 1
   7    2   12 1
   8    3    4 1
   9    3    7 2
  10    4    5 1
  11    4    8 1
  12    4   13 1
  13    5    6 1
  14    5   14 1
  15    5   15 1
  16    8   16 1
  17    8   17 1
  18    8   18 1

#	End of record

