#	Name: ASD03730195
#	Creating user name:	WinNT
#	Creation time:	15. 06. 2019 20:44

#	Modifying user name:	WinNT
#	Modification time:	15. 06. 2019 20:44

#	Program:	/corina/corina34_cracker 3.40 0067  02.08.2006

@<TRIPOS>MOLECULE
ASD03730195
  46   50    0    0    0
SMALL
NO_CHARGES


@<TRIPOS>ATOM
   1 N1            -0.0178     1.4650     0.0101 N.am    
   2 C2             0.0021    -0.0041     0.0020 C.3     
   3 C3             0.8580    -0.4791    -1.1763 C.3     
   4 C4             2.2423     0.1678    -1.0896 C.3     
   5 C5             2.1025     1.6893    -1.1766 C.3     
   6 C6             1.2607     2.1889     0.0018 C.3     
   7 C7            -1.1868     2.1359     0.0193 C.2     
   8 O8            -2.2444     1.5216     0.0210 O.co2   
   9 O9            -1.1899     3.3590     0.0260 O.co2   
  10 O10            1.2691    -6.1000    -1.1632 O.3     
  11 C11            1.0768    -6.4365    -2.5504 C.3     
  12 C12            0.2995    -5.2251    -3.0835 C.3     
  13 C13            0.6739    -4.1267    -2.1252 C.ar    
  14 C14            1.2516    -4.7451    -1.0195 C.ar    
  15 C15            1.7096    -3.9542     0.0302 C.ar    
  16 C16            1.5826    -2.5815    -0.0244 C.ar    
  17 C17            0.9993    -1.9785    -1.1231 C.ar    
  18 C18            0.5453    -2.7560    -2.1735 C.ar    
  19 N19           -0.4556    -4.9616    -5.2249 N.am    
  20 C20            0.6787    -4.8984    -4.4994 C.2     
  21 C21           -1.1787    -5.4764    -3.1156 C.ar    
  22 C22           -2.1076    -5.8153    -2.1570 C.ar    
  23 C23           -3.4355    -5.9829    -2.5073 C.ar    
  24 C24           -3.8280    -5.8089    -3.8220 C.ar    
  25 C25           -2.9015    -5.4695    -4.7858 C.ar    
  26 C26           -1.5626    -5.2985    -4.4423 C.ar    
  27 O27            1.7881    -4.6301    -4.9097 O.2     
  28 H28            0.4307    -0.3688     0.9355 H       
  29 H29           -1.0141    -0.3827    -0.1084 H       
  30 H30            0.3799    -0.1912    -2.1126 H       
  31 H31            2.7097    -0.1004    -0.1422 H       
  32 H32            2.8614    -0.1876    -1.9133 H       
  33 H33            3.0905     2.1482    -1.1383 H       
  34 H34            1.6127     1.9568    -2.1129 H       
  35 H35            1.0750     3.2573    -0.1088 H       
  36 H36            1.7919     2.0030     0.9352 H       
  37 H37            2.0348    -6.5365    -3.0606 H       
  38 H38            0.4876    -7.3482    -2.6492 H       
  39 H39            2.1669    -4.4175     0.8920 H       
  40 H40            1.9397    -1.9755     0.7951 H       
  41 H41            0.0894    -2.2874    -3.0331 H       
  42 H42           -0.4981    -4.7929    -6.1792 H       
  43 H43           -1.7991    -5.9507    -1.1309 H       
  44 H44           -4.1639    -6.2493    -1.7558 H       
  45 H45           -4.8646    -5.9398    -4.0953 H       
  46 H46           -3.2154    -5.3359    -5.8105 H       
@<TRIPOS>BOND
   1    1    2 1
   2    1    6 1
   3    1    7 am
   4    2    3 1
   5    2   28 1
   6    2   29 1
   7    3    4 1
   8    3   17 1
   9    3   30 1
  10    4    5 1
  11    4   31 1
  12    4   32 1
  13    5    6 1
  14    5   33 1
  15    5   34 1
  16    6   35 1
  17    6   36 1
  18    7    8 ar
  19    7    9 ar
  20   10   11 1
  21   10   14 1
  22   11   12 1
  23   11   37 1
  24   11   38 1
  25   12   13 1
  26   12   20 1
  27   12   21 1
  28   13   14 ar
  29   13   18 ar
  30   14   15 ar
  31   15   16 ar
  32   15   39 1
  33   16   17 ar
  34   16   40 1
  35   17   18 ar
  36   18   41 1
  37   19   20 am
  38   19   26 1
  39   19   42 1
  40   20   27 2
  41   21   22 ar
  42   21   26 ar
  43   22   23 ar
  44   22   43 1
  45   23   24 ar
  46   23   44 1
  47   24   25 ar
  48   24   45 1
  49   25   26 ar
  50   25   46 1

#	End of record

