#	Name: ASD01148753
#	Creating user name:	WinNT
#	Creation time:	15. 06. 2019 19:03

#	Modifying user name:	WinNT
#	Modification time:	15. 06. 2019 19:03

#	Program:	/corina/corina34_cracker 3.40 0067  02.08.2006

@<TRIPOS>MOLECULE
ASD01148753
  53   56    0    0    0
SMALL
NO_CHARGES


@<TRIPOS>ATOM
   1 C1             0.3723     1.8400     0.2431 C.ar    
   2 C2             0.2233     0.4748     0.0815 C.ar    
   3 C3             1.3365    -0.3406     0.0223 C.ar    
   4 C4             2.6062     0.2118     0.1251 C.ar    
   5 C5             2.7525     1.5830     0.2873 C.ar    
   6 C6             1.6355     2.3932     0.3458 C.ar    
   7 S7            -1.0500     2.8778     0.3109 S.o2    
   8 O8            -0.6183     4.1759    -0.0734 O.2     
   9 O9            -2.0909     2.1760    -0.3551 O.2     
  10 N10           -1.5020     2.9868     1.9003 N.am    
  11 N11            3.7374    -0.6128     0.0659 N.pl3   
  12 C12            4.1502    -1.3039    -1.0248 C.2     
  13 C13            5.2952    -1.9938    -0.6882 C.2     
  14 C14            5.5752    -1.6966     0.6709 C.2     
  15 C15            4.6097    -0.8459     1.1032 C.2     
  16 C16            6.0794    -2.8735    -1.5718 C.2     
  17 O17            6.2400    -2.5752    -2.7399 O.2     
  18 N18            6.6189    -4.0090    -1.0859 N.am    
  19 C19            6.3436    -4.4498     0.2908 C.3     
  20 C20            5.8972    -5.9157     0.2489 C.3     
  21 O21            6.8592    -6.6800    -0.4820 O.3     
  22 C22            6.9976    -6.2914    -1.8509 C.3     
  23 C23            7.4958    -4.8477    -1.9184 C.3     
  24 C24            3.4744    -1.3163    -2.3717 C.3     
  25 C25            4.5107    -0.2696     2.4616 C.ar    
  26 C26            3.2893     0.2179     2.9283 C.ar    
  27 C27            3.2030     0.7544     4.1963 C.ar    
  28 C28            4.3252     0.8096     5.0055 C.ar    
  29 C29            5.5400     0.3278     4.5477 C.ar    
  30 C30            5.6370    -0.2165     3.2838 C.ar    
  31 Cl31           4.2090     1.4860     6.6000 Cl      
  32 H32           -0.7646     0.0457     0.0019 H       
  33 H33            1.2194    -1.4068    -0.1036 H       
  34 H34            3.7389     2.0155     0.3680 H       
  35 H35            1.7487     3.4598     0.4716 H       
  36 H36           -0.9955     2.5178     2.5818 H       
  37 H37           -2.2733     3.5195     2.1497 H       
  38 H38            6.4041    -2.0735     1.2517 H       
  39 H39            7.2474    -4.3583     0.8932 H       
  40 H40            5.5515    -3.8370     0.7210 H       
  41 H41            5.8213    -6.3023     1.2652 H       
  42 H42            4.9266    -5.9868    -0.2420 H       
  43 H43            7.7132    -6.9484    -2.3453 H       
  44 H44            6.0310    -6.3639    -2.3494 H       
  45 H45            7.4663    -4.4982    -2.9504 H       
  46 H46            8.5176    -4.7970    -1.5422 H       
  47 H47            3.8813    -0.5159    -2.9898 H       
  48 H48            3.6504    -2.2759    -2.8578 H       
  49 H49            2.4027    -1.1659    -2.2418 H       
  50 H50            2.4133     0.1757     2.2979 H       
  51 H51            2.2583     1.1323     4.5585 H       
  52 H52            6.4120     0.3738     5.1831 H       
  53 H53            6.5839    -0.5965     2.9296 H       
@<TRIPOS>BOND
   1    1    2 ar
   2    1    6 ar
   3    1    7 1
   4    2    3 ar
   5    2   32 1
   6    3    4 ar
   7    3   33 1
   8    4    5 ar
   9    4   11 1
  10    5    6 ar
  11    5   34 1
  12    6   35 1
  13    7    8 2
  14    7    9 2
  15    7   10 am
  16   10   36 1
  17   10   37 1
  18   11   12 1
  19   11   15 1
  20   12   13 2
  21   12   24 1
  22   13   14 1
  23   13   16 1
  24   14   15 2
  25   14   38 1
  26   15   25 1
  27   16   17 2
  28   16   18 am
  29   18   19 1
  30   18   23 1
  31   19   20 1
  32   19   39 1
  33   19   40 1
  34   20   21 1
  35   20   41 1
  36   20   42 1
  37   21   22 1
  38   22   23 1
  39   22   43 1
  40   22   44 1
  41   23   45 1
  42   23   46 1
  43   24   47 1
  44   24   48 1
  45   24   49 1
  46   25   26 ar
  47   25   30 ar
  48   26   27 ar
  49   26   50 1
  50   27   28 ar
  51   27   51 1
  52   28   29 ar
  53   28   31 1
  54   29   30 ar
  55   29   52 1
  56   30   53 1

#	End of record

