#	Name: ASD03090739
#	Creating user name:	WinNT
#	Creation time:	15. 06. 2019 20:29

#	Modifying user name:	WinNT
#	Modification time:	15. 06. 2019 20:29

#	Program:	/corina/corina34_cracker 3.40 0067  02.08.2006

@<TRIPOS>MOLECULE
ASD03090739
  34   35    0    0    0
SMALL
NO_CHARGES


@<TRIPOS>ATOM
   1 N1            -0.0162     1.3436     0.0094 N.am    
   2 C2             0.0197     0.1477     0.6300 C.2     
   3 O3             1.0733    -0.2850     1.0557 O.2     
   4 N4            -1.1123    -0.5685     0.7788 N.am    
   5 S5            -2.4200    -2.8295     1.6864 S.3     
   6 C6            -1.0752    -1.8024     1.4192 C.2     
   7 N7            -0.0152    -2.3674     1.9135 N.2     
   8 N8            -0.1549    -3.4947     2.4645 N.2     
   9 C9            -1.3532    -3.9853     2.4849 C.2     
  10 C10           -1.7627    -5.3064     3.0833 C.3     
  11 F11           -0.6640    -5.8883     3.7248 F       
  12 F12           -2.7890    -5.0998     4.0114 F       
  13 F13           -2.2152    -6.1574     2.0693 F       
  14 C14            1.1451     2.1276    -0.0710 C.ar    
  15 C15            1.0448     3.5111    -0.1996 C.ar    
  16 C16            2.1923     4.2821    -0.2788 C.ar    
  17 C17            3.4390     3.6761    -0.2299 C.ar    
  18 C18            3.5374     2.2983    -0.1022 C.ar    
  19 C19            2.3933     1.5264    -0.0167 C.ar    
  20 O20            4.5659     4.4333    -0.3076 O.3     
  21 C21            4.3908     5.8454    -0.4384 C.3     
  22 O22           -0.1783     4.1035    -0.2478 O.3     
  23 C23           -0.2053     5.5261    -0.3805 C.3     
  24 I24            5.4221     1.3864    -0.0301 I       
  25 H25           -0.8437     1.6606    -0.3851 H       
  26 H26           -1.9528    -0.2234     0.4393 H       
  27 H27            2.1166     5.3548    -0.3789 H       
  28 H28            2.4720     0.4544     0.0878 H       
  29 H29            3.8309     6.0593    -1.3488 H       
  30 H30            3.8419     6.2249     0.4234 H       
  31 H31            5.3662     6.3292    -0.4897 H       
  32 H32           -1.2396     5.8690    -0.4066 H       
  33 H33            0.3067     5.9799     0.4680 H       
  34 H34            0.2964     5.8144    -1.3043 H       
@<TRIPOS>BOND
   1    1    2 am
   2    1   14 1
   3    1   25 1
   4    2    3 2
   5    2    4 am
   6    4    6 1
   7    4   26 1
   8    5    6 1
   9    5    9 1
  10    6    7 2
  11    7    8 1
  12    8    9 2
  13    9   10 1
  14   10   11 1
  15   10   12 1
  16   10   13 1
  17   14   15 ar
  18   14   19 ar
  19   15   16 ar
  20   15   22 1
  21   16   17 ar
  22   16   27 1
  23   17   18 ar
  24   17   20 1
  25   18   19 ar
  26   18   24 1
  27   19   28 1
  28   20   21 1
  29   21   29 1
  30   21   30 1
  31   21   31 1
  32   22   23 1
  33   23   32 1
  34   23   33 1
  35   23   34 1

#	End of record

