#	Name: ASD09740080
#	Creating user name:	WinNT
#	Creation time:	15. 06. 2019 21:22

#	Modifying user name:	WinNT
#	Modification time:	15. 06. 2019 21:22

#	Program:	/corina/corina34_cracker 3.40 0067  02.08.2006

@<TRIPOS>MOLECULE
ASD09740080
  37   40    0    0    0
SMALL
NO_CHARGES


@<TRIPOS>ATOM
   1 O1            -0.0272     1.9190    -2.5904 O.3     
   2 N2            -0.0138     0.8715    -3.2014 N.2     
   3 C3             1.2294     2.3229    -2.3481 C.2     
   4 N4             2.0311     1.4156    -2.8731 N.2     
   5 C5             1.2176     0.4877    -3.4187 C.2     
   6 C6             1.6421    -0.7425    -4.1342 C.ar    
   7 C7             1.6375     3.5496    -1.6308 C.ar    
   8 C8             0.6985    -1.6301    -4.6569 C.ar    
   9 C9             2.9958    -1.0406    -4.3076 C.ar    
  10 C10            3.3469    -2.1947    -4.9787 C.ar    
  11 N11            2.4243    -3.0095    -5.4524 N.ar    
  12 C12            1.1361    -2.7620    -5.3149 C.ar    
  13 C13            2.9915     3.8404    -1.4546 C.ar    
  14 C14            3.3690     4.9863    -0.7851 C.ar    
  15 C15            2.4099     5.8489    -0.2870 C.ar    
  16 C16            1.0609     5.5679    -0.4570 C.ar    
  17 C17            0.6711     4.4233    -1.1329 C.ar    
  18 O18            0.1226     6.4186     0.0355 O.3     
  19 C19           -1.1826     6.0521    -0.0578 C.ar    
  20 C20           -1.7687     5.3053     0.9542 C.ar    
  21 C21           -3.0958     4.9344     0.8572 C.ar    
  22 C22           -3.8400     5.3067    -0.2471 C.ar    
  23 C23           -3.2584     6.0509    -1.2569 C.ar    
  24 C24           -1.9331     6.4289    -1.1623 C.ar    
  25 H25           -0.3579    -1.4338    -4.5477 H       
  26 H26            3.7565    -0.3776    -3.9227 H       
  27 H27            4.3909    -2.4334    -5.1181 H       
  28 H28            0.4141    -3.4565    -5.7184 H       
  29 H29            3.7432     3.1685    -1.8418 H       
  30 H30            4.4168     5.2100    -0.6495 H       
  31 H31            2.7112     6.7441     0.2365 H       
  32 H32           -0.3779     4.2035    -1.2659 H       
  33 H33           -1.1877     5.0139     1.8168 H       
  34 H34           -3.5524     4.3528     1.6444 H       
  35 H35           -4.8773     5.0154    -0.3211 H       
  36 H36           -3.8417     6.3401    -2.1185 H       
  37 H37           -1.4792     7.0102    -1.9514 H       
@<TRIPOS>BOND
   1    1    2 1
   2    1    3 1
   3    2    5 2
   4    3    4 2
   5    3    7 1
   6    4    5 1
   7    5    6 1
   8    6    8 ar
   9    6    9 ar
  10    7   13 ar
  11    7   17 ar
  12    8   12 ar
  13    8   25 1
  14    9   10 ar
  15    9   26 1
  16   10   11 ar
  17   10   27 1
  18   11   12 ar
  19   12   28 1
  20   13   14 ar
  21   13   29 1
  22   14   15 ar
  23   14   30 1
  24   15   16 ar
  25   15   31 1
  26   16   17 ar
  27   16   18 1
  28   17   32 1
  29   18   19 1
  30   19   20 ar
  31   19   24 ar
  32   20   21 ar
  33   20   33 1
  34   21   22 ar
  35   21   34 1
  36   22   23 ar
  37   22   35 1
  38   23   24 ar
  39   23   36 1
  40   24   37 1

#	End of record

