#	Name: ASD03330463
#	Creating user name:	WinNT
#	Creation time:	15. 06. 2019 20:37

#	Modifying user name:	WinNT
#	Modification time:	15. 06. 2019 20:37

#	Program:	/corina/corina34_cracker 3.40 0067  02.08.2006

@<TRIPOS>MOLECULE
ASD03330463
  60   62    0    0    0
SMALL
NO_CHARGES


@<TRIPOS>ATOM
   1 C1            -1.2892     2.0923    -2.1070 C.3     
   2 N2            -1.1245     0.7050    -1.6512 N.3     
   3 C3            -0.3370    -0.0834    -2.6162 C.3     
   4 C4             0.9140     0.6921    -2.9391 C.2     
   5 N5             1.0771     2.0166    -2.6537 N.pl3   
   6 C6             0.0491     2.8357    -2.0056 C.3     
   7 C7             2.0550     0.2676    -3.5360 C.2     
   8 N8             2.8988     1.3229    -3.6075 N.2     
   9 C9             2.3168     2.3760    -3.0781 C.2     
  10 C10            2.9114     3.7254    -2.9640 C.ar    
  11 C11            2.3273    -1.0976    -4.0194 C.2     
  12 O12            1.4842    -1.9655    -3.8971 O.2     
  13 C13            3.7815    -2.7415    -5.0777 C.3     
  14 N14            3.5108    -1.3843    -4.5971 N.am    
  15 C15           -2.4276     0.0763    -1.3968 C.3     
  16 C16            2.8245     4.4302    -1.7634 C.ar    
  17 C17            4.3047    -3.5969    -3.9221 C.3     
  18 C18            3.2164    -3.7338    -2.8554 C.3     
  19 C19            4.6836    -4.9839    -4.4451 C.3     
  20 C20            5.5374    -2.9283    -3.3102 C.3     
  21 C21            4.8156    -2.6897    -6.1727 C.2     
  22 O22            5.4784    -1.6869    -6.3339 O.2     
  23 N23            5.0039    -3.7578    -6.9728 N.am    
  24 C24            6.0608    -3.7359    -7.9871 C.3     
  25 C25            3.3811     5.6887    -1.6632 C.ar    
  26 C26            4.0246     6.2536    -2.7499 C.ar    
  27 C27            4.1151     5.5622    -3.9443 C.ar    
  28 C28            3.5679     4.2979    -4.0569 C.ar    
  29 F29            3.6569     3.6226    -5.2236 F       
  30 C30            3.2875     6.4505    -0.3663 C.3     
  31 H31           -1.6277     2.0955    -3.1431 H       
  32 H32           -2.0298     2.5931    -1.4835 H       
  33 H33           -0.0715    -1.0450    -2.1770 H       
  34 H34           -0.9180    -0.2405    -3.5250 H       
  35 H35           -0.0260     3.7989    -2.5103 H       
  36 H36            0.3068     2.9880    -0.9575 H       
  37 H37            2.8622    -3.1794    -5.4666 H       
  38 H38            4.1832    -0.6921    -4.6947 H       
  39 H39           -3.0423     0.1380    -2.2949 H       
  40 H40           -2.2802    -0.9698    -1.1286 H       
  41 H41           -2.9274     0.5943    -0.5783 H       
  42 H42            2.3221     3.9916    -0.9139 H       
  43 H43            2.3383    -4.2100    -3.2914 H       
  44 H44            3.5892    -4.3431    -2.0321 H       
  45 H45            2.9465    -2.7456    -2.4829 H       
  46 H46            5.3622    -4.8801    -5.2918 H       
  47 H47            5.1747    -5.5492    -3.6530 H       
  48 H48            3.7838    -5.5106    -4.7630 H       
  49 H49            5.2675    -1.9402    -2.9376 H       
  50 H50            5.9102    -3.5377    -2.4869 H       
  51 H51            6.3127    -2.8308    -4.0701 H       
  52 H52            4.4397    -4.5410    -6.8771 H       
  53 H53            7.0270    -3.5966    -7.5022 H       
  54 H54            6.0607    -4.6798    -8.5323 H       
  55 H55            5.8810    -2.9152    -8.6815 H       
  56 H56            4.4580     7.2392    -2.6653 H       
  57 H57            4.6185     6.0089    -4.7890 H       
  58 H58            4.1519     6.2173     0.2554 H       
  59 H59            3.2673     7.5204    -0.5739 H       
  60 H60            2.3754     6.1649     0.1578 H       
@<TRIPOS>BOND
   1    1    2 1
   2    1    6 1
   3    1   31 1
   4    1   32 1
   5    2    3 1
   6    2   15 1
   7    3    4 1
   8    3   33 1
   9    3   34 1
  10    4    5 1
  11    4    7 2
  12    5    6 1
  13    5    9 1
  14    6   35 1
  15    6   36 1
  16    7    8 1
  17    7   11 1
  18    8    9 2
  19    9   10 1
  20   10   16 ar
  21   10   28 ar
  22   11   12 2
  23   11   14 am
  24   13   14 1
  25   13   17 1
  26   13   21 1
  27   13   37 1
  28   14   38 1
  29   15   39 1
  30   15   40 1
  31   15   41 1
  32   16   25 ar
  33   16   42 1
  34   17   18 1
  35   17   19 1
  36   17   20 1
  37   18   43 1
  38   18   44 1
  39   18   45 1
  40   19   46 1
  41   19   47 1
  42   19   48 1
  43   20   49 1
  44   20   50 1
  45   20   51 1
  46   21   22 2
  47   21   23 am
  48   23   24 1
  49   23   52 1
  50   24   53 1
  51   24   54 1
  52   24   55 1
  53   25   26 ar
  54   25   30 1
  55   26   27 ar
  56   26   56 1
  57   27   28 ar
  58   27   57 1
  59   28   29 1
  60   30   58 1
  61   30   59 1
  62   30   60 1

#	End of record

