#	Name: ASD01200331
#	Creating user name:	WinNT
#	Creation time:	15. 06. 2019 19:08

#	Modifying user name:	WinNT
#	Modification time:	15. 06. 2019 19:08

#	Program:	/corina/corina34_cracker 3.40 0067  02.08.2006

@<TRIPOS>MOLECULE
ASD01200331
  64   67    0    0    0
SMALL
NO_CHARGES


@<TRIPOS>ATOM
   1 C1            -0.0184     1.5028     0.0103 C.2     
   2 C2             0.0021    -0.0041     0.0020 C.3     
   3 C3             1.4513    -0.4944    -0.0145 C.3     
   4 O4             1.0197     2.1211     0.0037 O.2     
   5 O5            -1.1898     2.1580     0.0194 O.3     
   6 C6             2.6473    -2.6171    -0.0373 C.2     
   7 C7             2.6674    -4.0954    -0.0454 C.ar    
   8 C8             3.8826    -4.7908    -0.0607 C.ar    
   9 C9             3.8466    -6.1739    -0.0673 C.ar    
  10 C10            2.6229    -6.8194    -0.0587 C.ar    
  11 N11            1.4934    -6.1378    -0.0442 N.ar    
  12 C12            1.4758    -4.8210    -0.0321 C.ar    
  13 O13            3.6916    -1.9951    -0.0439 O.2     
  14 N14            1.4712    -1.9592    -0.0225 N.am    
  15 C15            2.5795    -8.3258    -0.0663 C.3     
  16 C16            1.7495    -8.8181     1.1210 C.3     
  17 C17            1.8082   -10.3456     1.1858 C.3     
  18 C18            0.9783   -10.8379     2.3731 C.3     
  19 N19            1.9696    -8.7904    -1.3146 N.pl3   
  20 C20            3.1411   -10.8973    -1.1193 C.ar    
  21 C21            2.2680   -10.0649    -1.8066 C.ar    
  22 C22            1.6925   -10.5160    -2.9928 C.ar    
  23 C23            2.0165   -11.7843    -3.4413 C.ar    
  24 C24            2.8983   -12.5604    -2.6998 C.ar    
  25 N25            3.4263   -12.1001    -1.5774 N.ar    
  26 N26            3.2321   -13.8442    -3.1452 N.pl3   
  27 N27            2.7541   -14.4600    -4.3083 N.2     
  28 C28            3.2838   -15.6516    -4.3954 C.2     
  29 C29            4.1259   -15.8400    -3.2813 C.2     
  30 C30            4.0760   -14.7021    -2.5304 C.2     
  31 C31            4.9263   -17.0540    -2.9821 C.ar    
  32 C32            4.8869   -18.1474    -3.8445 C.ar    
  33 C33            5.6330   -19.2736    -3.5616 C.ar    
  34 C34            6.4188   -19.3179    -2.4242 C.ar    
  35 C35            6.4617   -18.2351    -1.5646 C.ar    
  36 C36            5.7240   -17.1017    -1.8410 C.ar    
  37 H37           -0.4983    -0.3791     0.8948 H       
  38 H38           -0.5153    -0.3696    -0.8850 H       
  39 H39            1.9516    -0.1193    -0.9073 H       
  40 H40            1.9686    -0.1289     0.8726 H       
  41 H41           -1.1523     3.1243     0.0245 H       
  42 H42            4.8238    -4.2612    -0.0676 H       
  43 H43            4.7640    -6.7436    -0.0795 H       
  44 H44            0.5308    -4.2984    -0.0160 H       
  45 H45            0.6378    -2.4556    -0.0172 H       
  46 H46            3.5932    -8.7189     0.0111 H       
  47 H47            2.1514    -8.3996     2.0437 H       
  48 H48            0.7145    -8.4992     0.9979 H       
  49 H49            1.4063   -10.7641     0.2631 H       
  50 H50            2.8433   -10.6645     1.3089 H       
  51 H51            1.0201   -11.9262     2.4193 H       
  52 H52            1.3802   -10.4194     3.2958 H       
  53 H53           -0.0567   -10.5190     2.2501 H       
  54 H54            1.3587    -8.2140    -1.7999 H       
  55 H55            3.5950   -10.5539    -0.2014 H       
  56 H56            1.0096    -9.8908    -3.5488 H       
  57 H57            1.5888   -12.1663    -4.3565 H       
  58 H58            3.1064   -16.3678    -5.1840 H       
  59 H59            4.6118   -14.5207    -1.6103 H       
  60 H60            4.2733   -18.1140    -4.7327 H       
  61 H61            5.6028   -20.1219    -4.2293 H       
  62 H62            7.0008   -20.2012    -2.2064 H       
  63 H63            7.0769   -18.2748    -0.6779 H       
  64 H64            5.7618   -16.2550    -1.1716 H       
@<TRIPOS>BOND
   1    1    2 1
   2    1    4 2
   3    1    5 1
   4    2    3 1
   5    2   37 1
   6    2   38 1
   7    3   14 1
   8    3   39 1
   9    3   40 1
  10    5   41 1
  11    6    7 1
  12    6   13 2
  13    6   14 am
  14    7    8 ar
  15    7   12 ar
  16    8    9 ar
  17    8   42 1
  18    9   10 ar
  19    9   43 1
  20   10   11 ar
  21   10   15 1
  22   11   12 ar
  23   12   44 1
  24   14   45 1
  25   15   16 1
  26   15   19 1
  27   15   46 1
  28   16   17 1
  29   16   47 1
  30   16   48 1
  31   17   18 1
  32   17   49 1
  33   17   50 1
  34   18   51 1
  35   18   52 1
  36   18   53 1
  37   19   21 1
  38   19   54 1
  39   20   21 ar
  40   20   25 ar
  41   20   55 1
  42   21   22 ar
  43   22   23 ar
  44   22   56 1
  45   23   24 ar
  46   23   57 1
  47   24   25 ar
  48   24   26 1
  49   26   27 1
  50   26   30 1
  51   27   28 2
  52   28   29 1
  53   28   58 1
  54   29   30 2
  55   29   31 1
  56   30   59 1
  57   31   32 ar
  58   31   36 ar
  59   32   33 ar
  60   32   60 1
  61   33   34 ar
  62   33   61 1
  63   34   35 ar
  64   34   62 1
  65   35   36 ar
  66   35   63 1
  67   36   64 1

#	End of record

