#	Name: ASD01816461
#	Creating user name:	WinNT
#	Creation time:	15. 06. 2019 19:35

#	Modifying user name:	WinNT
#	Modification time:	15. 06. 2019 19:35

#	Program:	/corina/corina34_cracker 3.40 0067  02.08.2006

@<TRIPOS>MOLECULE
ASD01816461
  54   59    0    0    0
SMALL
NO_CHARGES


@<TRIPOS>ATOM
   1 C1            -0.0753     1.3139     0.1752 C.ar    
   2 C2            -0.0314    -0.0708     0.1634 C.ar    
   3 C3             1.1774    -0.7356     0.0949 C.ar    
   4 C4             2.3669    -0.0139     0.0369 C.ar    
   5 C5             2.3169     1.3893     0.0487 C.ar    
   6 C6             1.0925     2.0465     0.1180 C.ar    
   7 N7             3.5829    -0.6734    -0.0311 N.pl3   
   8 C8             4.7604    -0.0313    -0.0890 C.2     
   9 C9             4.8361     1.3396    -0.0840 C.2     
  10 C10            3.5889     2.1345    -0.0136 C.2     
  11 C11            5.9125     2.3239    -0.1343 C.2     
  12 N12            5.3168     3.5353    -0.0954 N.am    
  13 N13            3.9289     3.3913    -0.0235 N.2     
  14 C14            5.9933     4.7604    -0.1228 C.ar    
  15 O15            7.1099     2.0978    -0.1982 O.2     
  16 C16            3.5843    -2.1384    -0.0397 C.3     
  17 C17            3.7120    -2.6490     1.3724 C.ar    
  18 C18            2.5875    -2.7644     2.1688 C.ar    
  19 C19            2.7015    -3.2315     3.4635 C.ar    
  20 C20            3.9466    -3.5859     3.9651 C.ar    
  21 C21            5.0738    -3.4693     3.1629 C.ar    
  22 C22            4.9528    -3.0064     1.8673 C.ar    
  23 N23            4.0656    -4.0599     5.2790 N.pl3   
  24 C24            5.2124    -4.4374     5.8881 C.2     
  25 C25            4.9010    -4.8296     7.1452 C.2     
  26 C26            3.5190    -4.6875     7.3109 C.2     
  27 N27            3.0184    -4.2208     6.1954 N.2     
  28 C28            6.8807     5.0424    -1.1531 C.ar    
  29 C29            7.5467     6.2522    -1.1772 C.ar    
  30 C30            7.3310     7.1819    -0.1767 C.ar    
  31 C31            6.4478     6.9042     0.8508 C.ar    
  32 C32            5.7741     5.6991     0.8775 C.ar    
  33 F33            1.2057    -2.0862     0.0845 F       
  34 C34            4.8116     5.3976     1.9971 C.3     
  35 H35           -1.0272     1.8217     0.2250 H       
  36 H36           -0.9508    -0.6356     0.2085 H       
  37 H37            1.0562     3.1258     0.1266 H       
  38 H38            5.6720    -0.6082    -0.1404 H       
  39 H39            2.6522    -2.5001    -0.4739 H       
  40 H40            4.4250    -2.4975    -0.6334 H       
  41 H41            1.6192    -2.4886     1.7780 H       
  42 H42            1.8229    -3.3208     4.0853 H       
  43 H43            6.0438    -3.7439     3.5505 H       
  44 H44            5.8292    -2.9156     1.2428 H       
  45 H45            6.1994    -4.4282     5.4497 H       
  46 H46            5.5965    -5.1888     7.8893 H       
  47 H47            2.9618    -4.9189     8.2068 H       
  48 H48            7.0502     4.3163    -1.9345 H       
  49 H49            8.2370     6.4721    -1.9781 H       
  50 H50            7.8535     8.1268    -0.1974 H       
  51 H51            6.2815     7.6324     1.6308 H       
  52 H52            3.8144     5.7405     1.7212 H       
  53 H53            4.7892     4.3228     2.1775 H       
  54 H54            5.1349     5.9113     2.9025 H       
@<TRIPOS>BOND
   1    1    2 ar
   2    1    6 ar
   3    1   35 1
   4    2    3 ar
   5    2   36 1
   6    3    4 ar
   7    3   33 1
   8    4    5 ar
   9    4    7 1
  10    5    6 ar
  11    5   10 1
  12    6   37 1
  13    7    8 1
  14    7   16 1
  15    8    9 2
  16    8   38 1
  17    9   10 1
  18    9   11 1
  19   10   13 2
  20   11   12 am
  21   11   15 2
  22   12   13 1
  23   12   14 1
  24   14   28 ar
  25   14   32 ar
  26   16   17 1
  27   16   39 1
  28   16   40 1
  29   17   18 ar
  30   17   22 ar
  31   18   19 ar
  32   18   41 1
  33   19   20 ar
  34   19   42 1
  35   20   21 ar
  36   20   23 1
  37   21   22 ar
  38   21   43 1
  39   22   44 1
  40   23   24 1
  41   23   27 1
  42   24   25 2
  43   24   45 1
  44   25   26 1
  45   25   46 1
  46   26   27 2
  47   26   47 1
  48   28   29 ar
  49   28   48 1
  50   29   30 ar
  51   29   49 1
  52   30   31 ar
  53   30   50 1
  54   31   32 ar
  55   31   51 1
  56   32   34 1
  57   34   52 1
  58   34   53 1
  59   34   54 1

#	End of record

