#	Name: ASD01510008
#	Creating user name:	WinNT
#	Creation time:	15. 06. 2019 19:21

#	Modifying user name:	WinNT
#	Modification time:	15. 06. 2019 19:21

#	Program:	/corina/corina34_cracker 3.40 0067  02.08.2006

@<TRIPOS>MOLECULE
ASD01510008
  49   52    0    0    0
SMALL
NO_CHARGES


@<TRIPOS>ATOM
   1 C1            -0.0662     1.2980    -0.3812 C.3     
   2 C2             0.0692    -0.2041    -0.1240 C.3     
   3 N3             0.6475    -0.4219     1.2043 N.am    
   4 C4            -0.1544    -0.5449     2.3165 C.2     
   5 C5            -1.5102    -0.4885     2.3626 C.2     
   6 C6            -2.2176    -0.8584     3.5915 C.ar    
   7 C7            -1.5244    -1.4963     4.6293 C.ar    
   8 C8            -2.2066    -1.8375     5.7796 C.ar    
   9 C9            -3.5612    -1.5340     5.8651 C.ar    
  10 C10           -4.1858    -0.9042     4.8064 C.ar    
  11 N11           -3.5154    -0.5814     3.7180 N.ar    
  12 C12           -4.2154     0.0862     2.6178 C.3     
  13 C13           -4.5683    -0.9407     1.5400 C.3     
  14 S14            0.9567    -0.7926     3.6765 S.3     
  15 C15            2.4185    -0.7161     2.6742 C.2     
  16 C16            3.7348    -0.8382     3.0918 C.2     
  17 S17            4.3640    -0.5749     4.7265 S.3     
  18 C18            6.0408    -0.9455     4.3021 C.ar    
  19 C19            6.0449    -1.2515     2.9411 C.ar    
  20 N20            4.8059    -1.1904     2.3313 N.pl3   
  21 C21            4.6527    -1.4860     0.9046 C.3     
  22 C22            7.2762    -1.5849     2.3542 C.ar    
  23 C23            8.4294    -1.6061     3.1028 C.ar    
  24 C24            8.4044    -1.2997     4.4527 C.ar    
  25 C25            7.2048    -0.9682     5.0517 C.ar    
  26 C26            1.9554    -0.5121     1.3722 C.2     
  27 O27            2.7262    -0.4140     0.4306 O.2     
  28 H28            0.9174     1.7652    -0.3321 H       
  29 H29           -0.4964     1.4601    -1.3695 H       
  30 H30           -0.7160     1.7390     0.3747 H       
  31 H31           -0.9144    -0.6712    -0.1732 H       
  32 H32            0.7190    -0.6450    -0.8800 H       
  33 H33           -2.0673    -0.1709     1.4936 H       
  34 H34           -0.4720    -1.7178     4.5303 H       
  35 H35           -1.6993    -2.3300     6.5959 H       
  36 H36           -4.1208    -1.7894     6.7528 H       
  37 H37           -5.2377    -0.6690     4.8728 H       
  38 H38           -5.1290     0.5463     2.9944 H       
  39 H39           -3.5712     0.8547     2.1904 H       
  40 H40           -5.0088    -0.4312     0.6830 H       
  41 H41           -3.6648    -1.4638     1.2267 H       
  42 H42           -5.2828    -1.6588     1.9424 H       
  43 H43            5.4696    -2.1290     0.5770 H       
  44 H44            3.7022    -1.9930     0.7386 H       
  45 H45            4.6724    -0.5558     0.3367 H       
  46 H46            7.3179    -1.8280     1.3028 H       
  47 H47            9.3662    -1.8652     2.6320 H       
  48 H48            9.3153    -1.3197     5.0326 H       
  49 H49            7.1746    -0.7272     6.1040 H       
@<TRIPOS>BOND
   1    1    2 1
   2    1   28 1
   3    1   29 1
   4    1   30 1
   5    2    3 1
   6    2   31 1
   7    2   32 1
   8    3    4 1
   9    3   26 am
  10    4    5 2
  11    4   14 1
  12    5    6 1
  13    5   33 1
  14    6    7 ar
  15    6   11 ar
  16    7    8 ar
  17    7   34 1
  18    8    9 ar
  19    8   35 1
  20    9   10 ar
  21    9   36 1
  22   10   11 ar
  23   10   37 1
  24   11   12 1
  25   12   13 1
  26   12   38 1
  27   12   39 1
  28   13   40 1
  29   13   41 1
  30   13   42 1
  31   14   15 1
  32   15   16 2
  33   15   26 1
  34   16   17 1
  35   16   20 1
  36   17   18 1
  37   18   19 ar
  38   18   25 ar
  39   19   20 1
  40   19   22 ar
  41   20   21 1
  42   21   43 1
  43   21   44 1
  44   21   45 1
  45   22   23 ar
  46   22   46 1
  47   23   24 ar
  48   23   47 1
  49   24   25 ar
  50   24   48 1
  51   25   49 1
  52   26   27 2

#	End of record

