#	Name: ASD01911285
#	Creating user name:	WinNT
#	Creation time:	15. 06. 2019 19:57

#	Modifying user name:	WinNT
#	Modification time:	15. 06. 2019 19:57

#	Program:	/corina/corina34_cracker 3.40 0067  02.08.2006

@<TRIPOS>MOLECULE
ASD01911285
  29   31    0    0    0
SMALL
NO_CHARGES


@<TRIPOS>ATOM
   1 C1            -0.0167     1.3797     0.0096 C.ar    
   2 C2             0.0021    -0.0041     0.0020 C.ar    
   3 C3             1.2058    -0.6867    -0.0131 C.ar    
   4 C4             2.3967     0.0085    -0.0203 C.ar    
   5 C5             2.3859     1.4064    -0.0127 C.ar    
   6 C6             1.1660     2.0889     0.0021 C.ar    
   7 C7             3.6183     2.1356    -0.0196 C.1     
   8 C8             4.6287     2.7334    -0.0252 C.1     
   9 C9             5.8611     3.4626    -0.0321 C.2     
  10 C10            5.8575     4.8528    -0.0246 C.2     
  11 C11            7.0793     5.5399    -0.0311 C.2     
  12 N12            8.2549     4.8377    -0.0451 N.am    
  13 C13            8.2542     3.4729    -0.0533 C.2     
  14 C14            7.1011     2.7772    -0.0407 C.2     
  15 N15            7.0799     6.8736    -0.0240 N.2     
  16 C16            8.2101     7.5617    -0.0297 C.2     
  17 C17            9.4230     6.9002    -0.0433 C.2     
  18 C18            9.4321     5.5007    -0.0513 C.2     
  19 O19           10.4880     4.8881    -0.0633 O.2     
  20 H20           -0.9600     1.9056     0.0169 H       
  21 H21           -0.9274    -0.5540     0.0083 H       
  22 H22            1.2126    -1.7667    -0.0190 H       
  23 H23            3.3354    -0.5255    -0.0314 H       
  24 H24            1.1498     3.1687     0.0077 H       
  25 H25            4.9246     5.3968    -0.0142 H       
  26 H26            9.1945     2.9416    -0.0647 H       
  27 H27            7.1215     1.6974    -0.0475 H       
  28 H28            8.1844     8.6414    -0.0241 H       
  29 H29           10.3499     7.4546    -0.0485 H       
@<TRIPOS>BOND
   1    1    2 ar
   2    1    6 ar
   3    1   20 1
   4    2    3 ar
   5    2   21 1
   6    3    4 ar
   7    3   22 1
   8    4    5 ar
   9    4   23 1
  10    5    6 ar
  11    5    7 1
  12    6   24 1
  13    7    8 3
  14    8    9 1
  15    9   10 2
  16    9   14 1
  17   10   11 1
  18   10   25 1
  19   11   12 1
  20   11   15 2
  21   12   13 1
  22   12   18 am
  23   13   14 2
  24   13   26 1
  25   14   27 1
  26   15   16 1
  27   16   17 2
  28   16   28 1
  29   17   18 1
  30   17   29 1
  31   18   19 2

#	End of record

