#	Name: ASD02038978
#	Creating user name:	WinNT
#	Creation time:	15. 06. 2019 20:17

#	Modifying user name:	WinNT
#	Modification time:	15. 06. 2019 20:17

#	Program:	/corina/corina34_cracker 3.40 0067  02.08.2006

@<TRIPOS>MOLECULE
ASD02038978
  44   46    0    0    0
SMALL
NO_CHARGES


@<TRIPOS>ATOM
   1 N1            -0.0050     1.4087     0.2257 N.am    
   2 N2            -0.0130     0.0211     0.0319 N.am    
   3 C3            -1.1779    -0.6562     0.0577 C.2     
   4 O4            -2.2192    -0.0646     0.2487 O.2     
   5 C5            -1.1865    -2.1487    -0.1508 C.3     
   6 O6            -2.5294    -2.6319    -0.0793 O.3     
   7 N7            -3.2833    -8.0662    -0.7621 N.am    
   8 C8            -4.4988    -8.5499    -1.0772 C.2     
   9 C9            -5.6695    -7.6239    -1.2695 C.3     
  10 C10           -5.5672    -6.4468    -0.2991 C.3     
  11 C11           -4.1803    -5.8612    -0.3615 C.ar    
  12 C12           -3.9925    -4.5041    -0.1902 C.ar    
  13 C13           -2.7143    -3.9684    -0.2477 C.ar    
  14 C14           -1.6243    -4.7958    -0.4764 C.ar    
  15 C15           -1.8109    -6.1532    -0.6474 C.ar    
  16 C16           -3.0902    -6.6900    -0.5903 C.ar    
  17 O17           -4.6526    -9.7459    -1.2081 O.2     
  18 C18            1.1599     2.0860     0.1999 C.2     
  19 S19            1.1697     3.7815     0.4368 S.2     
  20 N20            2.3171     1.4286    -0.0124 N.am    
  21 C21            3.5162     2.1412    -0.1256 C.ar    
  22 C22            3.8097     3.1564     0.7753 C.ar    
  23 C23            4.9937     3.8582     0.6613 C.ar    
  24 C24            5.8870     3.5509    -0.3499 C.ar    
  25 C25            5.5967     2.5401    -1.2494 C.ar    
  26 C26            4.4172     1.8308    -1.1358 C.ar    
  27 Cl27           7.3741     4.4354    -0.4908 Cl      
  28 H28           -0.8383     1.8824     0.3745 H       
  29 H29            0.8199    -0.4520    -0.1209 H       
  30 H30           -0.7684    -2.3811    -1.1303 H       
  31 H31           -0.5864    -2.6271     0.6232 H       
  32 H32           -2.5368    -8.6753    -0.6493 H       
  33 H33           -5.6709    -7.2500    -2.2934 H       
  34 H34           -6.5956    -8.1676    -1.0828 H       
  35 H35           -6.2959    -5.6845    -0.5748 H       
  36 H36           -5.7700    -6.7930     0.7144 H       
  37 H37           -4.8406    -3.8597    -0.0117 H       
  38 H38           -0.6294    -4.3780    -0.5210 H       
  39 H39           -0.9623    -6.7970    -0.8258 H       
  40 H40            2.3189     0.4614    -0.0867 H       
  41 H41            3.1126     3.3971     1.5643 H       
  42 H42            5.2225     4.6478     1.3618 H       
  43 H43            6.2952     2.3027    -2.0381 H       
  44 H44            4.1933     1.0387    -1.8351 H       
@<TRIPOS>BOND
   1    1    2 1
   2    1   18 am
   3    1   28 1
   4    2    3 am
   5    2   29 1
   6    3    4 2
   7    3    5 1
   8    5    6 1
   9    5   30 1
  10    5   31 1
  11    6   13 1
  12    7    8 am
  13    7   16 1
  14    7   32 1
  15    8    9 1
  16    8   17 2
  17    9   10 1
  18    9   33 1
  19    9   34 1
  20   10   11 1
  21   10   35 1
  22   10   36 1
  23   11   12 ar
  24   11   16 ar
  25   12   13 ar
  26   12   37 1
  27   13   14 ar
  28   14   15 ar
  29   14   38 1
  30   15   16 ar
  31   15   39 1
  32   18   19 2
  33   18   20 am
  34   20   21 1
  35   20   40 1
  36   21   22 ar
  37   21   26 ar
  38   22   23 ar
  39   22   41 1
  40   23   24 ar
  41   23   42 1
  42   24   25 ar
  43   24   27 1
  44   25   26 ar
  45   25   43 1
  46   26   44 1

#	End of record

