#	Name: ASD01884800
#	Creating user name:	WinNT
#	Creation time:	15. 06. 2019 19:48

#	Modifying user name:	WinNT
#	Modification time:	15. 06. 2019 19:48

#	Program:	/corina/corina34_cracker 3.40 0067  02.08.2006

@<TRIPOS>MOLECULE
ASD01884800
  52   55    0    0    0
SMALL
NO_CHARGES


@<TRIPOS>ATOM
   1 C1            -0.6651     0.9592     0.2612 C.3     
   2 C2            -0.4191    -0.5421     0.4240 C.3     
   3 H3            -1.3468    -1.0330     0.7179 H       
   4 C4             0.0692    -1.1257    -0.9014 C.3     
   5 N5             0.6178    -2.4695    -0.7534 N.am    
   6 C6             1.3952    -2.8063     0.3041 C.2     
   7 O7             2.0149    -3.8520     0.3377 O.2     
   8 C8             1.4484    -1.8342     1.4117 C.2     
   9 C9             2.2555    -1.7674     2.5268 C.2     
  10 C10            1.8767    -0.6100     3.2383 C.2     
  11 N11            0.8986    -0.0223     2.5908 N.2     
  12 N12            0.5980    -0.7617     1.4547 N.pl3   
  13 C13            3.3150    -2.7245     2.9044 C.2     
  14 O14            3.5434    -3.6878     2.1989 O.2     
  15 N15            4.0286    -2.5300     4.0311 N.am    
  16 C16            4.9610    -3.4833     4.4391 C.ar    
  17 C17            5.7000    -4.2070     3.5042 C.ar    
  18 C18            6.6128    -5.1406     3.9489 C.ar    
  19 C19            7.4180    -5.9290     2.9483 C.3     
  20 N20            6.7903    -5.3520     5.2394 N.ar    
  21 C21            6.1105    -4.6876     6.1549 C.ar    
  22 C22            6.3552    -4.9711     7.6146 C.3     
  23 C23            5.1827    -3.7333     5.7927 C.ar    
  24 C24            0.3342    -3.4330    -1.7258 C.ar    
  25 C25           -0.4603    -4.5278    -1.4101 C.ar    
  26 C26           -0.7389    -5.4775    -2.3732 C.ar    
  27 C27           -0.2279    -5.3395    -3.6508 C.ar    
  28 C28            0.5634    -4.2508    -3.9684 C.ar    
  29 C29            0.8416    -3.2947    -3.0115 C.ar    
  30 C30           -0.5336    -6.3781    -4.6990 C.3     
  31 F31           -1.7029    -6.0231    -5.3802 F       
  32 F32            0.5295    -6.4531    -5.6053 F       
  33 F33           -0.7114    -7.6224    -4.0848 F       
  34 H34            0.2628     1.4497    -0.0327 H       
  35 H35           -1.4213     1.1222    -0.5068 H       
  36 H36           -1.0123     1.3752     1.2070 H       
  37 H37           -0.7667    -1.1613    -1.6000 H       
  38 H38            0.8405    -0.4733    -1.3109 H       
  39 H39            2.3179    -0.2654     4.1619 H       
  40 H40            3.8936    -1.7270     4.5581 H       
  41 H41            5.5594    -4.0391     2.4467 H       
  42 H42            8.3425    -5.3963     2.7253 H       
  43 H43            7.6543    -6.9088     3.3632 H       
  44 H44            6.8397    -6.0520     2.0326 H       
  45 H45            7.1446    -4.3168     7.9845 H       
  46 H46            5.4398    -4.7906     8.1782 H       
  47 H47            6.6581    -6.0110     7.7370 H       
  48 H48            4.6331    -3.1898     6.5471 H       
  49 H49           -0.8594    -4.6363    -0.4124 H       
  50 H50           -1.3563    -6.3291    -2.1283 H       
  51 H51            0.9612    -4.1462    -4.9670 H       
  52 H52            1.4562    -2.4425    -3.2613 H       
@<TRIPOS>BOND
   1    1    2 1
   2    1   34 1
   3    1   35 1
   4    1   36 1
   5    2    3 1
   6    2   12 1
   7    2    4 1
   8    4    5 1
   9    4   37 1
  10    4   38 1
  11    5    6 am
  12    5   24 1
  13    6    7 2
  14    6    8 1
  15    8   12 1
  16    8    9 2
  17    9   10 1
  18    9   13 1
  19   10   11 2
  20   10   39 1
  21   11   12 1
  22   13   14 2
  23   13   15 am
  24   15   16 1
  25   15   40 1
  26   16   23 ar
  27   16   17 ar
  28   17   18 ar
  29   17   41 1
  30   18   19 1
  31   18   20 ar
  32   19   42 1
  33   19   43 1
  34   19   44 1
  35   20   21 ar
  36   21   22 1
  37   21   23 ar
  38   22   45 1
  39   22   46 1
  40   22   47 1
  41   23   48 1
  42   24   29 ar
  43   24   25 ar
  44   25   26 ar
  45   25   49 1
  46   26   27 ar
  47   26   50 1
  48   27   28 ar
  49   27   30 1
  50   28   29 ar
  51   28   51 1
  52   29   52 1
  53   30   31 1
  54   30   32 1
  55   30   33 1

#	End of record

