#	Name: ASD03091144
#	Creating user name:	WinNT
#	Creation time:	15. 06. 2019 20:30

#	Modifying user name:	WinNT
#	Modification time:	15. 06. 2019 20:30

#	Program:	/corina/corina34_cracker 3.40 0067  02.08.2006

@<TRIPOS>MOLECULE
ASD03091144
  28   30    0    0    0
SMALL
NO_CHARGES


@<TRIPOS>ATOM
   1 C1            -0.0162     1.3433     0.0094 C.2     
   2 N2             0.0021    -0.0041     0.0020 N.am    
   3 C3             1.1752    -0.7190    -0.0130 C.2     
   4 C4             2.3888    -0.1127    -0.0213 C.2     
   5 C5             2.4608     1.3463    -0.0142 C.ar    
   6 C6             3.6824     2.0245    -0.0226 C.ar    
   7 C7             3.6973     3.3908    -0.0159 C.ar    
   8 C8             2.5121     4.1172    -0.0003 C.ar    
   9 C9             1.2924     3.4753     0.0084 C.ar    
  10 C10            1.2515     2.0811     0.0013 C.ar    
  11 O11           -1.0760     1.9432     0.0177 O.2     
  12 C12            1.1131    -2.1960    -0.0199 C.ar    
  13 C13           -0.1224    -2.8455    -0.0111 C.ar    
  14 C14           -0.1732    -4.2251    -0.0181 C.ar    
  15 C15            0.9984    -4.9636    -0.0332 C.ar    
  16 C16            2.2253    -4.3251    -0.0419 C.ar    
  17 C17            2.2894    -2.9467    -0.0409 C.ar    
  18 Cl18          -1.7083    -5.0357    -0.0072 Cl      
  19 Br19           2.5740     6.0071     0.0099 Br      
  20 H20           -0.8404    -0.4848     0.0078 H       
  21 H21            3.2931    -0.7031    -0.0328 H       
  22 H22            4.6101     1.4716    -0.0341 H       
  23 H23            4.6424     3.9133    -0.0225 H       
  24 H24            0.3761     4.0469     0.0209 H       
  25 H25           -1.0363    -2.2703     0.0014 H       
  26 H26            0.9538    -6.0427    -0.0379 H       
  27 H27            3.1352    -4.9067    -0.0537 H       
  28 H28            3.2482    -2.4497    -0.0520 H       
@<TRIPOS>BOND
   1    1    2 am
   2    1   10 1
   3    1   11 2
   4    2    3 1
   5    2   20 1
   6    3    4 2
   7    3   12 1
   8    4    5 1
   9    4   21 1
  10    5    6 ar
  11    5   10 ar
  12    6    7 ar
  13    6   22 1
  14    7    8 ar
  15    7   23 1
  16    8    9 ar
  17    8   19 1
  18    9   10 ar
  19    9   24 1
  20   12   13 ar
  21   12   17 ar
  22   13   14 ar
  23   13   25 1
  24   14   15 ar
  25   14   18 1
  26   15   16 ar
  27   15   26 1
  28   16   17 ar
  29   16   27 1
  30   17   28 1

#	End of record

