#	Name: ASD02500106
#	Creating user name:	WinNT
#	Creation time:	15. 06. 2019 20:22

#	Modifying user name:	WinNT
#	Modification time:	15. 06. 2019 20:22

#	Program:	/corina/corina34_cracker 3.40 0067  02.08.2006

@<TRIPOS>MOLECULE
ASD02500106
  64   68    0    0    0
SMALL
NO_CHARGES


@<TRIPOS>ATOM
   1 N1            -4.8381    -3.2383    -6.0508 N.ar    
   2 C2            -5.5009    -2.6106    -5.1100 C.ar    
   3 C3            -6.5808    -1.7804    -5.4032 C.ar    
   4 C4            -6.9727    -1.6039    -6.6995 C.ar    
   5 C5            -6.2583    -2.2792    -7.7072 C.ar    
   6 C6            -6.6030    -2.1470    -9.0617 C.ar    
   7 C7            -5.8873    -2.8172   -10.0067 C.ar    
   8 C8            -4.8169    -3.6333    -9.6473 C.ar    
   9 C9            -4.4555    -3.7843    -8.3438 C.ar    
  10 C10           -5.1699    -3.1088    -7.3393 C.ar    
  11 S11           -3.0979    -4.8233    -7.9172 S.o2    
  12 O12           -3.5505    -5.6624    -6.8634 O.2     
  13 O13           -2.5763    -5.3244    -9.1403 O.2     
  14 N14           -1.9223    -3.8529    -7.2701 N.am    
  15 C15           -2.7363    -3.8529    -4.9939 C.ar    
  16 C16           -2.1527    -3.1863    -6.0715 C.ar    
  17 C17           -1.8029    -1.8440    -5.9322 C.ar    
  18 C18           -2.0499    -1.2216    -4.7225 C.ar    
  19 C19           -2.6367    -1.9525    -3.6894 C.ar    
  20 N20           -2.9568    -3.2308    -3.8589 N.ar    
  21 C21           -2.9051    -1.2975    -2.3915 C.2     
  22 O22           -2.4879    -0.1757    -2.1790 O.2     
  23 N23           -3.6122    -1.9443    -1.4438 N.am    
  24 C24           -3.7204    -1.3670    -0.1657 C.3     
  25 C25           -3.1621    -2.3290     0.9136 C.3     
  26 N26           -4.0944    -3.4253     1.0796 N.3     
  27 C27           -3.8015    -4.6290     0.2741 C.3     
  28 C28           -3.3953    -4.3181    -1.1655 C.3     
  29 C29           -4.2512    -3.2314    -1.7857 C.3     
  30 C30           -4.2488    -3.7520     2.4318 C.ar    
  31 C31           -5.4858    -3.5900     3.0529 C.ar    
  32 C32           -5.6329    -3.9153     4.3907 C.ar    
  33 C33           -4.5536    -4.3993     5.1079 C.ar    
  34 C34           -3.3263    -4.5598     4.4929 C.ar    
  35 C35           -3.1727    -4.2432     3.1557 C.ar    
  36 O36           -6.5459    -3.1131     2.3467 O.3     
  37 C37           -7.7828    -2.9732     3.0485 C.3     
  38 H38           -5.2023    -2.7408    -4.0803 H       
  39 H39           -7.1077    -1.2772    -4.6060 H       
  40 H40           -7.8078    -0.9644    -6.9448 H       
  41 H41           -7.4311    -1.5178    -9.3525 H       
  42 H42           -6.1532    -2.7149   -11.0484 H       
  43 H43           -4.2653    -4.1550   -10.4154 H       
  44 H44           -1.0730    -3.7494    -7.7272 H       
  45 H45           -3.0141    -4.8916    -5.0959 H       
  46 H46           -1.3494    -1.3032    -6.7496 H       
  47 H47           -1.7915    -0.1828    -4.5793 H       
  48 H48           -3.1562    -0.4347    -0.1431 H       
  49 H49           -4.7688    -1.1575     0.0468 H       
  50 H50           -2.1947    -2.7163     0.5938 H       
  51 H51           -3.0521    -1.7957     1.8579 H       
  52 H52           -2.9928    -5.1808     0.7532 H       
  53 H53           -4.6891    -5.2615     0.2571 H       
  54 H54           -2.3534    -3.9980    -1.1768 H       
  55 H55           -3.4903    -5.2251    -1.7626 H       
  56 H56           -5.2592    -3.2680    -1.3726 H       
  57 H57           -4.2867    -3.3534    -2.8683 H       
  58 H58           -6.5904    -3.7907     4.8744 H       
  59 H59           -4.6702    -4.6521     6.1514 H       
  60 H60           -2.4863    -4.9374     5.0570 H       
  61 H61           -2.2137    -4.3738     2.6764 H       
  62 H62           -8.5430    -2.5846     2.3709 H       
  63 H63           -8.0972    -3.9455     3.4280 H       
  64 H64           -7.6516    -2.2830     3.8818 H       
@<TRIPOS>BOND
   1    1    2 ar
   2    1   10 ar
   3    2    3 ar
   4    2   38 1
   5    3    4 ar
   6    3   39 1
   7    4    5 ar
   8    4   40 1
   9    5    6 ar
  10    5   10 ar
  11    6    7 ar
  12    6   41 1
  13    7    8 ar
  14    7   42 1
  15    8    9 ar
  16    8   43 1
  17    9   10 ar
  18    9   11 1
  19   11   12 2
  20   11   13 2
  21   11   14 am
  22   14   16 1
  23   14   44 1
  24   15   16 ar
  25   15   20 ar
  26   15   45 1
  27   16   17 ar
  28   17   18 ar
  29   17   46 1
  30   18   19 ar
  31   18   47 1
  32   19   20 ar
  33   19   21 1
  34   21   22 2
  35   21   23 am
  36   23   24 1
  37   23   29 1
  38   24   25 1
  39   24   48 1
  40   24   49 1
  41   25   26 1
  42   25   50 1
  43   25   51 1
  44   26   27 1
  45   26   30 1
  46   27   28 1
  47   27   52 1
  48   27   53 1
  49   28   29 1
  50   28   54 1
  51   28   55 1
  52   29   56 1
  53   29   57 1
  54   30   31 ar
  55   30   35 ar
  56   31   32 ar
  57   31   36 1
  58   32   33 ar
  59   32   58 1
  60   33   34 ar
  61   33   59 1
  62   34   35 ar
  63   34   60 1
  64   35   61 1
  65   36   37 1
  66   37   62 1
  67   37   63 1
  68   37   64 1

#	End of record

