#	Name: ASD03430206
#	Creating user name:	WinNT
#	Creation time:	15. 06. 2019 20:40

#	Modifying user name:	WinNT
#	Modification time:	15. 06. 2019 20:40

#	Program:	/corina/corina34_cracker 3.40 0067  02.08.2006

@<TRIPOS>MOLECULE
ASD03430206
  64   70    0    0    0
SMALL
NO_CHARGES


@<TRIPOS>ATOM
   1 C1            -0.0222     1.3508     0.1001 C.ar    
   2 C2            -0.0027    -0.0262     0.0763 C.ar    
   3 C3             1.1998    -0.7014     0.0633 C.ar    
   4 C4             2.4016     0.0017     0.0829 C.ar    
   5 C5             2.3733     1.3912     0.0963 C.ar    
   6 C6             1.1639     2.0756     0.1019 C.ar    
   7 O7             3.4681    -0.8474     0.0991 O.3     
   8 C8             1.5565    -2.1623     0.0170 C.3     
   9 C9             3.0471    -2.1491    -0.3507 C.3     
  10 C10            0.4337    -3.8985     1.0398 C.ar    
  11 C11            1.3101    -2.8543     1.3250 C.ar    
  12 C12            0.7405    -2.9173    -0.9924 C.2     
  13 N13            0.1213    -3.9091    -0.3214 N.am    
  14 O14            0.6552    -2.6810    -2.1790 O.2     
  15 C15            1.7584    -2.6476     2.6100 C.ar    
  16 C16            1.3400    -3.4804     3.6330 C.ar    
  17 C17            0.4697    -4.5199     3.3615 C.ar    
  18 C18            0.0172    -4.7312     2.0755 C.ar    
  19 C19           -0.7746    -4.8847    -0.9473 C.3     
  20 C20           -1.1576     2.3547     0.1370 C.3     
  21 C21           -0.4240     3.6525     0.5509 C.3     
  22 O22            0.9201     3.4158     0.0990 O.3     
  23 C23           -2.2009    -4.4181    -0.8089 C.ar    
  24 C24           -3.2341    -5.1379    -1.4118 C.ar    
  25 C25           -2.9333    -6.3595    -2.1878 C.2     
  26 O26           -1.7790    -6.6886    -2.3800 O.2     
  27 C27           -2.4890    -3.2822    -0.0814 C.ar    
  28 C28           -3.7982    -2.8527     0.0470 C.ar    
  29 C29           -4.8262    -3.5583    -0.5523 C.ar    
  30 C30           -4.5523    -4.6991    -1.2783 C.ar    
  31 N31           -3.9389    -7.1084    -2.6822 N.am    
  32 C32           -3.6594    -8.3223    -3.3179 C.ar    
  33 C33           -2.6077    -9.1137    -2.8753 C.ar    
  34 C34           -2.3346   -10.3123    -3.5051 C.ar    
  35 C35           -3.1071   -10.7244    -4.5752 C.ar    
  36 C36           -4.1550    -9.9383    -5.0189 C.ar    
  37 C37           -4.4369    -8.7417    -4.3900 C.ar    
  38 C38           -1.1931   -11.1716    -3.0257 C.3     
  39 H39           -0.9309    -0.5783     0.0681 H       
  40 H40            3.3007     1.9447     0.1031 H       
  41 H41            3.1809    -2.2483    -1.4279 H       
  42 H42            3.5839    -2.9347     0.1811 H       
  43 H43            2.4378    -1.8347     2.8200 H       
  44 H44            1.6926    -3.3189     4.6409 H       
  45 H45            0.1430    -5.1698     4.1598 H       
  46 H46           -0.6623    -5.5454     1.8712 H       
  47 H47           -0.5250    -4.9818    -2.0039 H       
  48 H48           -0.6593    -5.8511    -0.4565 H       
  49 H49           -1.6144     2.4624    -0.8468 H       
  50 H50           -1.9020     2.0736     0.8819 H       
  51 H51           -0.8546     4.5172     0.0460 H       
  52 H52           -0.4505     3.7828     1.6327 H       
  53 H53           -1.6911    -2.7270     0.3892 H       
  54 H54           -4.0185    -1.9628     0.6180 H       
  55 H55           -5.8458    -3.2177    -0.4482 H       
  56 H56           -5.3557    -5.2490    -1.7458 H       
  57 H57           -4.8564    -6.8055    -2.5970 H       
  58 H58           -2.0037    -8.7922    -2.0397 H       
  59 H59           -2.8915   -11.6620    -5.0660 H       
  60 H60           -4.7563   -10.2629    -5.8552 H       
  61 H61           -5.2553    -8.1283    -4.7369 H       
  62 H62           -1.5538   -11.8630    -2.2642 H       
  63 H63           -0.7856   -11.7355    -3.8648 H       
  64 H64           -0.4145   -10.5377    -2.6015 H       
@<TRIPOS>BOND
   1    1    2 ar
   2    1    6 ar
   3    1   20 1
   4    2    3 ar
   5    2   39 1
   6    3    4 ar
   7    3    8 1
   8    4    5 ar
   9    4    7 1
  10    5    6 ar
  11    5   40 1
  12    6   22 1
  13    7    9 1
  14    8    9 1
  15    8   11 1
  16    8   12 1
  17    9   41 1
  18    9   42 1
  19   10   11 ar
  20   10   13 1
  21   10   18 ar
  22   11   15 ar
  23   12   13 am
  24   12   14 2
  25   13   19 1
  26   15   16 ar
  27   15   43 1
  28   16   17 ar
  29   16   44 1
  30   17   18 ar
  31   17   45 1
  32   18   46 1
  33   19   23 1
  34   19   47 1
  35   19   48 1
  36   20   21 1
  37   20   49 1
  38   20   50 1
  39   21   22 1
  40   21   51 1
  41   21   52 1
  42   23   24 ar
  43   23   27 ar
  44   24   25 1
  45   24   30 ar
  46   25   26 2
  47   25   31 am
  48   27   28 ar
  49   27   53 1
  50   28   29 ar
  51   28   54 1
  52   29   30 ar
  53   29   55 1
  54   30   56 1
  55   31   32 1
  56   31   57 1
  57   32   33 ar
  58   32   37 ar
  59   33   34 ar
  60   33   58 1
  61   34   35 ar
  62   34   38 1
  63   35   36 ar
  64   35   59 1
  65   36   37 ar
  66   36   60 1
  67   37   61 1
  68   38   62 1
  69   38   63 1
  70   38   64 1

#	End of record

