#	Name: ASD01148326
#	Creating user name:	WinNT
#	Creation time:	15. 06. 2019 19:02

#	Modifying user name:	WinNT
#	Modification time:	15. 06. 2019 19:02

#	Program:	/corina/corina34_cracker 3.40 0067  02.08.2006

@<TRIPOS>MOLECULE
ASD01148326
  49   51    0    0    0
SMALL
NO_CHARGES


@<TRIPOS>ATOM
   1 C1            -0.0167     1.3793     0.0096 C.ar    
   2 C2             0.0021    -0.0041     0.0020 C.ar    
   3 C3            -1.1869    -0.7115     0.0095 C.ar    
   4 C4            -2.3926    -0.0360     0.0246 C.ar    
   5 C5            -2.4107     1.3463     0.0322 C.ar    
   6 C6            -1.2230     2.0537     0.0305 C.ar    
   7 C7            -3.7257     2.0823     0.0482 C.3     
   8 O8            -4.7306     1.3282     0.7560 O.3     
   9 C9            -3.6316     3.3658     0.9073 C.3     
  10 C10           -4.1229     2.8923     2.2621 C.2     
  11 N11           -4.7174     1.7576     2.1030 N.2     
  12 C12           -3.9502     3.6062     3.5425 C.ar    
  13 C13           -4.4544     3.0551     4.7233 C.ar    
  14 C14           -3.2777     4.8305     3.5747 C.ar    
  15 C15           -3.1168     5.4962     4.7688 C.ar    
  16 C16           -3.6260     4.9477     5.9483 C.ar    
  17 C17           -4.2933     3.7210     5.9172 C.ar    
  18 C18           -3.4527     5.6624     7.2304 C.2     
  19 O19           -2.8672     6.7273     7.2584 O.2     
  20 N20           -3.9439     5.1333     8.3685 N.am    
  21 C21           -4.1855     2.4070    -1.3745 C.3     
  22 F22           -4.3278     1.2200    -2.1010 F       
  23 F23           -5.4141     3.0746    -1.3265 F       
  24 F24           -3.2351     3.2236    -1.9968 F       
  25 Cl25           1.5169    -0.8519    -0.0175 Cl      
  26 C26           -3.7722     5.8416     9.6394 C.3     
  27 C27            1.2779     2.1506     0.0014 C.3     
  28 F28            1.0035     3.5224     0.0114 F       
  29 F29            2.0270     1.8166     1.1348 F       
  30 F30            2.0051     1.8289    -1.1496 F       
  31 C31           -1.1673    -2.2184     0.0007 C.3     
  32 F32           -2.4801    -2.7018     0.0107 F       
  33 F33           -0.5129    -2.6695    -1.1505 F       
  34 F34           -0.4908    -2.6826     1.1339 F       
  35 C35           -4.4171     5.0317    10.7659 C.3     
  36 F36           -3.8062     3.7756    10.8458 F       
  37 F37           -4.2531     5.7081    11.9794 F       
  38 F38           -5.7816     4.8707    10.5024 F       
  39 H39           -3.3208    -0.5881     0.0301 H       
  40 H40           -1.2377     3.1336     0.0364 H       
  41 H41           -2.6009     3.7149     0.9698 H       
  42 H42           -4.2820     4.1454     0.5107 H       
  43 H43           -4.9707     2.1068     4.6992 H       
  44 H44           -2.8837     5.2544     2.6628 H       
  45 H45           -2.5967     6.4423     4.7937 H       
  46 H46           -4.6869     3.2971     6.8293 H       
  47 H47           -4.4111     4.2835     8.3462 H       
  48 H48           -2.7091     5.9671     9.8446 H       
  49 H49           -4.2482     6.8202     9.5770 H       
@<TRIPOS>BOND
   1    1    2 ar
   2    1   27 1
   3    1    6 ar
   4    2    3 ar
   5    2   25 1
   6    3    4 ar
   7    3   31 1
   8    4    5 ar
   9    4   39 1
  10    5    6 ar
  11    5    7 1
  12    6   40 1
  13    7    8 1
  14    7    9 1
  15    7   21 1
  16    8   11 1
  17    9   10 1
  18    9   41 1
  19    9   42 1
  20   10   11 2
  21   10   12 1
  22   12   13 ar
  23   12   14 ar
  24   13   17 ar
  25   13   43 1
  26   14   15 ar
  27   14   44 1
  28   15   16 ar
  29   15   45 1
  30   16   17 ar
  31   16   18 1
  32   17   46 1
  33   18   19 2
  34   18   20 am
  35   20   26 1
  36   20   47 1
  37   21   22 1
  38   21   23 1
  39   21   24 1
  40   26   35 1
  41   26   48 1
  42   26   49 1
  43   27   28 1
  44   27   29 1
  45   27   30 1
  46   31   32 1
  47   31   33 1
  48   31   34 1
  49   35   36 1
  50   35   37 1
  51   35   38 1

#	End of record

