#	Name: ASD01200513
#	Creating user name:	WinNT
#	Creation time:	15. 06. 2019 19:09

#	Modifying user name:	WinNT
#	Modification time:	15. 06. 2019 19:09

#	Program:	/corina/corina34_cracker 3.40 0067  02.08.2006

@<TRIPOS>MOLECULE
ASD01200513
  27   28    0    0    0
SMALL
NO_CHARGES


@<TRIPOS>ATOM
   1 N1            -0.2537     1.2218    -0.5260 N.ar    
   2 C2            -0.1382    -0.0727    -0.3080 C.ar    
   3 C3             1.1095    -0.6833    -0.3123 C.ar    
   4 C4             2.2407     0.0930    -0.5513 C.ar    
   5 C5             2.0722     1.4497    -0.7759 C.ar    
   6 C6             0.7977     1.9844    -0.7553 C.ar    
   7 N7             1.2280    -2.0573    -0.0796 N.am    
   8 C8             0.1518    -2.7706     0.3072 C.2     
   9 C9             2.5219    -2.7213    -0.2564 C.3     
  10 O10           -0.8958    -2.2040     0.5577 O.2     
  11 O11            1.3700    -4.9639     0.3235 O.3     
  12 C12            0.2432    -4.2291     0.4262 C.2     
  13 C13           -0.7974    -5.0818     0.6608 C.2     
  14 C14           -0.2574    -6.3769     0.6977 C.2     
  15 C15            1.0722    -6.2595     0.4867 C.2     
  16 N16            2.0402    -7.3786     0.4431 N.pl3   
  17 O17            1.6558    -8.5229     0.6050 O.2     
  18 O18            3.2210    -7.1550     0.2452 O.2     
  19 H19           -1.0225    -0.6648    -0.1238 H       
  20 H20            3.2249    -0.3514    -0.5609 H       
  21 H21            2.9270     2.0824    -0.9643 H       
  22 H22            0.6608     3.0413    -0.9302 H       
  23 H23            3.0267    -2.7956     0.7068 H       
  24 H24            2.3650    -3.7206    -0.6624 H       
  25 H25            3.1366    -2.1416    -0.9450 H       
  26 H26           -1.8348    -4.8120     0.7930 H       
  27 H27           -0.8020    -7.2945     0.8641 H       
@<TRIPOS>BOND
   1    1    2 ar
   2    1    6 ar
   3    2    3 ar
   4    2   19 1
   5    3    4 ar
   6    3    7 1
   7    4    5 ar
   8    4   20 1
   9    5    6 ar
  10    5   21 1
  11    6   22 1
  12    7    8 am
  13    7    9 1
  14    8   10 2
  15    8   12 1
  16    9   23 1
  17    9   24 1
  18    9   25 1
  19   11   12 1
  20   11   15 1
  21   12   13 2
  22   13   14 1
  23   13   26 1
  24   14   15 2
  25   14   27 1
  26   15   16 1
  27   16   17 2
  28   16   18 2

#	End of record

