#	Name: ASD01410952
#	Creating user name:	WinNT
#	Creation time:	15. 06. 2019 19:19

#	Modifying user name:	WinNT
#	Modification time:	15. 06. 2019 19:19

#	Program:	/corina/corina34_cracker 3.40 0067  02.08.2006

@<TRIPOS>MOLECULE
ASD01410952
  64   67    0    0    0
SMALL
NO_CHARGES


@<TRIPOS>ATOM
   1 C1            -1.4927     3.0845     0.4130 C.ar    
   2 C2            -1.3361     0.7302    -0.0431 C.ar    
   3 C3            -2.7112     0.6686    -0.2233 C.ar    
   4 C4            -3.4866     1.8285    -0.0715 C.ar    
   5 C5            -2.8644     3.0392     0.2425 C.ar    
   6 O6            -0.8871     4.2615     0.7242 O.3     
   7 C7            -0.0942     4.8374    -0.2140 C.ar    
   8 N8            -3.3207    -0.5427    -0.5428 N.am    
   9 C9            -3.7154    -1.3781     0.4385 C.2     
  10 C10           -3.6569    -0.9411     1.8486 C.ar    
  11 O11           -4.1195    -2.4911     0.1633 O.2     
  12 C12           -4.2106    -1.7377     2.8529 C.ar    
  13 C13           -2.9907     0.6697     3.5009 C.ar    
  14 C14           -3.5468    -0.1221     4.4921 C.ar    
  15 C15           -4.1525    -1.3247     4.1672 C.ar    
  16 Cl16          -3.4776     0.3911     6.1490 Cl      
  17 N17           -0.0250     4.3112    -1.4259 N.ar    
  18 C18           -3.5327    -0.9085    -1.9455 C.3     
  19 C19           -4.2647     0.2270    -2.6636 C.3     
  20 C20            0.6328     5.9770     0.1052 C.ar    
  21 C21            1.4376     6.5551    -0.8612 C.ar    
  22 C22            1.4867     5.9696    -2.1186 C.ar    
  23 C23            0.7329     4.8396    -2.3677 C.ar    
  24 C24           -3.0425     0.2674     2.1830 C.ar    
  25 C25            2.3486     6.5642    -3.2024 C.3     
  26 C26           -2.1805    -1.1503    -2.6194 C.3     
  27 O27           -1.5507    -2.2890    -2.0288 O.3     
  28 C28           -0.2743    -2.6031    -2.5892 C.3     
  29 C29           -0.7318     1.9299     0.2729 C.ar    
  30 N30            3.6857     5.9682    -3.1451 N.pl3   
  31 N31            4.0414     4.9091    -3.7819 N.2     
  32 C32            5.3004     4.6542    -3.5061 C.2     
  33 C33            5.7109     5.6598    -2.6280 C.2     
  34 N34            4.6651     6.4361    -2.4554 N.2     
  35 C35            0.5460     6.5764     1.4852 C.3     
  36 F36            1.3646     7.7089     1.5540 F       
  37 F37           -0.7778     6.9409     1.7529 F       
  38 F38            0.9708     5.6359     2.4297 F       
  39 C39           -4.9471     1.7735    -0.2611 C.2     
  40 O40           -5.5057     0.6998    -0.3696 O.2     
  41 O41           -5.6631     2.9139    -0.3141 O.3     
  42 H42           -0.7370    -0.1609    -0.1590 H       
  43 H43           -3.4533     3.9379     0.3522 H       
  44 H44           -4.6838    -2.6752     2.6007 H       
  45 H45           -2.5200     1.6065     3.7603 H       
  46 H46           -4.5805    -1.9400     4.9448 H       
  47 H47           -4.1321    -1.8174    -1.9974 H       
  48 H48           -3.6813     1.1441    -2.5822 H       
  49 H49           -4.3920    -0.0305    -3.7151 H       
  50 H50           -5.2422     0.3763    -2.2052 H       
  51 H51            2.0140     7.4417    -0.6419 H       
  52 H52            0.7678     4.3799    -3.3443 H       
  53 H53           -2.6086     0.8857     1.4111 H       
  54 H54            1.9013     6.3602    -4.1753 H       
  55 H55            2.4245     7.6417    -3.0561 H       
  56 H56           -2.3320    -1.3302    -3.6837 H       
  57 H57           -1.5461    -0.2741    -2.4857 H       
  58 H58            0.1373    -3.4788    -2.0873 H       
  59 H59           -0.3863    -2.8131    -3.6529 H       
  60 H60            0.3996    -1.7570    -2.4549 H       
  61 H61            0.3384     1.9720     0.4119 H       
  62 H62            5.8957     3.8349    -3.8813 H       
  63 H63            6.6889     5.7776    -2.1851 H       
  64 H64           -6.6180     2.8273    -0.4398 H       
@<TRIPOS>BOND
   1    1   29 ar
   2    1    6 1
   3    1    5 ar
   4    2    3 ar
   5    2   29 ar
   6    2   42 1
   7    3    4 ar
   8    3    8 1
   9    4    5 ar
  10    4   39 1
  11    5   43 1
  12    6    7 1
  13    7   20 ar
  14    7   17 ar
  15    8    9 am
  16    8   18 1
  17    9   10 1
  18    9   11 2
  19   10   12 ar
  20   10   24 ar
  21   12   15 ar
  22   12   44 1
  23   13   14 ar
  24   13   24 ar
  25   13   45 1
  26   14   15 ar
  27   14   16 1
  28   15   46 1
  29   17   23 ar
  30   18   19 1
  31   18   26 1
  32   18   47 1
  33   19   48 1
  34   19   49 1
  35   19   50 1
  36   20   21 ar
  37   20   35 1
  38   21   22 ar
  39   21   51 1
  40   22   23 ar
  41   22   25 1
  42   23   52 1
  43   24   53 1
  44   25   30 1
  45   25   54 1
  46   25   55 1
  47   26   27 1
  48   26   56 1
  49   26   57 1
  50   27   28 1
  51   28   58 1
  52   28   59 1
  53   28   60 1
  54   29   61 1
  55   30   31 1
  56   30   34 1
  57   31   32 2
  58   32   33 1
  59   32   62 1
  60   33   34 2
  61   33   63 1
  62   35   36 1
  63   35   37 1
  64   35   38 1
  65   39   40 2
  66   39   41 1
  67   41   64 1

#	End of record

