#	Name: ASD02030087
#	Creating user name:	WinNT
#	Creation time:	15. 06. 2019 20:14

#	Modifying user name:	WinNT
#	Modification time:	15. 06. 2019 20:14

#	Program:	/corina/corina34_cracker 3.40 0067  02.08.2006

@<TRIPOS>MOLECULE
ASD02030087
  60   64    0    0    0
SMALL
NO_CHARGES


@<TRIPOS>ATOM
   1 C1            -4.8088     6.3357     2.9548 C.ar    
   2 C2            -5.0322     7.2638     1.9474 C.ar    
   3 C3            -5.0055     6.8765     0.6208 C.ar    
   4 C4            -4.7547     5.5565     0.2849 C.ar    
   5 C5            -4.5270     4.6101     1.2966 C.ar    
   6 C6            -4.5506     5.0121     2.6377 C.ar    
   7 C7            -4.2595     3.2045     0.9493 C.2     
   8 C8            -5.3704     2.2275     0.9108 C.ar    
   9 C9            -5.1367     0.9210     0.4772 C.ar    
  10 C10           -6.1712     0.0116     0.4415 C.ar    
  11 C11           -6.6513     2.6104     1.3136 C.ar    
  12 O12           -3.1260     2.8464     0.6940 O.2     
  13 F13           -4.3329     4.1100     3.6196 F       
  14 O14           -4.7295     5.1789    -1.0184 O.3     
  15 C15           -7.6855     1.7006     1.2777 C.ar    
  16 C16           -7.4528     0.3964     0.8383 C.ar    
  17 C17           -8.5640    -0.5808     0.7998 C.2     
  18 N18           -9.8408    -0.1494     0.7939 N.am    
  19 O19           -8.3249    -1.7720     0.7735 O.2     
  20 C20          -11.0342    -1.0033     0.8846 C.3     
  21 C21          -11.0304    -1.7520     2.1925 C.2     
  22 N22          -12.0372    -2.5980     2.4876 N.am    
  23 C23          -12.2667    -0.0773     0.8136 C.3     
  24 C24          -11.7079     1.1922     0.1182 C.3     
  25 C25          -10.2721     1.2574     0.7018 C.3     
  26 O26          -10.1213    -1.5933     2.9796 O.2     
  27 C27          -11.9776    -3.3802     3.6487 C.ar    
  28 C28          -13.1473    -3.6686     4.3520 C.ar    
  29 C29          -13.1109    -4.4288     5.4853 C.ar    
  30 C30          -11.8976    -4.9267     5.9533 C.ar    
  31 C31          -10.7107    -4.6416     5.2512 C.ar    
  32 C32          -10.7621    -3.8661     4.0878 C.ar    
  33 N33          -11.5423    -5.6985     7.0307 N.pl3   
  34 C34           -9.6321    -5.2959     5.9851 C.2     
  35 N35          -10.1583    -5.8991     7.0126 N.2     
  36 O36           -4.8379     6.7280     4.2571 O.3     
  37 C37           -5.1038     8.1085     4.5131 C.3     
  38 H38           -5.2284     8.2949     2.2016 H       
  39 H39           -5.1812     7.6056    -0.1563 H       
  40 H40           -4.1451     0.6235     0.1695 H       
  41 H41           -5.9904    -0.9989     0.1060 H       
  42 H42           -6.8314     3.6196     1.6536 H       
  43 H43           -3.8751     5.3144    -1.4507 H       
  44 H44           -8.6762     1.9967     1.5896 H       
  45 H45          -11.0493    -1.7088     0.0539 H       
  46 H46          -12.8031    -2.6655     1.8962 H       
  47 H47          -13.0554    -0.5305     0.2130 H       
  48 H48          -12.6297     0.1590     1.8138 H       
  49 H49          -11.6879     1.0678    -0.9645 H       
  50 H50          -12.2819     2.0755     0.3979 H       
  51 H51          -10.2842     1.7213     1.6881 H       
  52 H52           -9.6143     1.8091     0.0302 H       
  53 H53          -14.0923    -3.2860     3.9959 H       
  54 H54          -14.0243    -4.6439     6.0199 H       
  55 H55           -9.8572    -3.6421     3.5424 H       
  56 H56          -12.1531    -6.0485     7.6982 H       
  57 H57           -8.5845    -5.2826     5.7228 H       
  58 H58           -4.3357     8.7203     4.0400 H       
  59 H59           -6.0800     8.3720     4.1059 H       
  60 H60           -5.0986     8.2862     5.5885 H       
@<TRIPOS>BOND
   1    1    2 ar
   2    1   36 1
   3    1    6 ar
   4    2    3 ar
   5    2   38 1
   6    3    4 ar
   7    3   39 1
   8    4    5 ar
   9    4   14 1
  10    5    6 ar
  11    5    7 1
  12    6   13 1
  13    7    8 1
  14    7   12 2
  15    8    9 ar
  16    8   11 ar
  17    9   10 ar
  18    9   40 1
  19   10   16 ar
  20   10   41 1
  21   11   15 ar
  22   11   42 1
  23   14   43 1
  24   15   16 ar
  25   15   44 1
  26   16   17 1
  27   17   18 am
  28   17   19 2
  29   18   20 1
  30   18   25 1
  31   20   21 1
  32   20   23 1
  33   20   45 1
  34   21   22 am
  35   21   26 2
  36   22   27 1
  37   22   46 1
  38   23   24 1
  39   23   47 1
  40   23   48 1
  41   24   25 1
  42   24   49 1
  43   24   50 1
  44   25   51 1
  45   25   52 1
  46   27   28 ar
  47   27   32 ar
  48   28   29 ar
  49   28   53 1
  50   29   30 ar
  51   29   54 1
  52   30   31 ar
  53   30   33 1
  54   31   32 ar
  55   31   34 1
  56   32   55 1
  57   33   35 1
  58   33   56 1
  59   34   35 2
  60   34   57 1
  61   36   37 1
  62   37   58 1
  63   37   59 1
  64   37   60 1

#	End of record

