#	Name: ASD01911039
#	Creating user name:	WinNT
#	Creation time:	15. 06. 2019 19:57

#	Modifying user name:	WinNT
#	Modification time:	15. 06. 2019 19:57

#	Program:	/corina/corina34_cracker 3.40 0067  02.08.2006

@<TRIPOS>MOLECULE
ASD01911039
  53   56    0    0    0
SMALL
NO_CHARGES


@<TRIPOS>ATOM
   1 N1            -4.7520    -3.3306     1.0066 N.3     
   2 C2            -3.5025    -2.6297     1.3315 C.3     
   3 C3            -2.6797    -2.4401     0.0528 C.3     
   4 N4            -3.5233    -1.7743    -0.9513 N.am    
   5 C5            -4.8508    -2.3420    -1.2317 C.3     
   6 C6            -5.5882    -2.5354     0.0976 C.3     
   7 C7            -3.0915    -0.6728    -1.5969 C.2     
   8 C8            -3.8995    -0.0921    -2.6876 C.ar    
   9 C9            -4.0112     1.2961    -2.8123 C.ar    
  10 C10           -4.7643     1.8435    -3.8285 C.ar    
  11 C11           -5.4176     1.0216    -4.7352 C.ar    
  12 C12           -5.3132    -0.3742    -4.6198 C.ar    
  13 C13           -4.5469    -0.9279    -3.5970 C.ar    
  14 C14           -5.9870    -1.2249    -5.5541 C.1     
  15 O15           -2.0365    -0.1575    -1.2812 O.2     
  16 C16           -6.5394    -1.9224    -6.3200 C.1     
  17 C17           -7.2132    -2.7731    -7.2543 C.ar    
  18 C18           -7.1091    -4.1591    -7.1391 C.ar    
  19 C19           -7.7684    -4.9791    -8.0531 C.ar    
  20 C20           -8.5282    -4.4085    -9.0774 C.ar    
  21 C21           -8.6273    -3.0352    -9.1859 C.ar    
  22 C22           -7.9821    -2.2164    -8.2813 C.ar    
  23 C23           -5.4471    -3.6639     2.1561 C.ar    
  24 O24           -6.1577     1.5661    -5.7329 O.3     
  25 N25           -6.6025    -4.3037     2.0506 N.ar    
  26 C26           -7.2918    -4.6368     3.1293 C.ar    
  27 C27           -6.7916    -4.3085     4.3795 C.ar    
  28 C28           -5.5802    -3.6392     4.4536 C.ar    
  29 N29           -4.9387    -3.3402     3.3361 N.ar    
  30 C30           -6.2203     2.9925    -5.7900 C.3     
  31 C31           -7.6668    -6.4032    -7.9430 C.1     
  32 N32           -7.5862    -7.5330    -7.8556 N.1     
  33 H33           -3.7335    -1.6558     1.7632 H       
  34 H34           -2.9306    -3.2191     2.0481 H       
  35 H35           -1.8078    -1.8219     0.2667 H       
  36 H36           -2.3596    -3.4116    -0.3240 H       
  37 H37           -5.4144    -1.6588    -1.8670 H       
  38 H38           -4.7394    -3.3039    -1.7319 H       
  39 H39           -6.5288    -3.0564    -0.0807 H       
  40 H40           -5.7901    -1.5628     0.5464 H       
  41 H41           -3.5058     1.9418    -2.1094 H       
  42 H42           -4.8464     2.9165    -3.9191 H       
  43 H43           -4.4624    -2.0004    -3.5026 H       
  44 H44           -6.5201    -4.5949    -6.3456 H       
  45 H45           -9.0392    -5.0430    -9.7864 H       
  46 H46           -9.2158    -2.6000    -9.9800 H       
  47 H47           -8.0639    -1.1433    -8.3722 H       
  48 H48           -8.2332    -5.1580     3.0369 H       
  49 H49           -7.3342    -4.5683     5.2765 H       
  50 H50           -5.1630    -3.3685     5.4123 H       
  51 H51           -6.6505     3.3746    -4.8642 H       
  52 H52           -5.2155     3.3955    -5.9172 H       
  53 H53           -6.8426     3.2955    -6.6320 H       
@<TRIPOS>BOND
   1    1    2 1
   2    1   23 1
   3    1    6 1
   4    2    3 1
   5    2   33 1
   6    2   34 1
   7    3    4 1
   8    3   35 1
   9    3   36 1
  10    4    5 1
  11    4    7 am
  12    5    6 1
  13    5   37 1
  14    5   38 1
  15    6   39 1
  16    6   40 1
  17    7    8 1
  18    7   15 2
  19    8    9 ar
  20    8   13 ar
  21    9   10 ar
  22    9   41 1
  23   10   11 ar
  24   10   42 1
  25   11   12 ar
  26   11   24 1
  27   12   13 ar
  28   12   14 1
  29   13   43 1
  30   14   16 3
  31   16   17 1
  32   17   18 ar
  33   17   22 ar
  34   18   19 ar
  35   18   44 1
  36   19   20 ar
  37   19   31 1
  38   20   21 ar
  39   20   45 1
  40   21   22 ar
  41   21   46 1
  42   22   47 1
  43   23   25 ar
  44   23   29 ar
  45   24   30 1
  46   25   26 ar
  47   26   27 ar
  48   26   48 1
  49   27   28 ar
  50   27   49 1
  51   28   29 ar
  52   28   50 1
  53   30   51 1
  54   30   52 1
  55   30   53 1
  56   31   32 3

#	End of record

