#	Name: ASD06020072
#	Creating user name:	WinNT
#	Creation time:	15. 06. 2019 21:04

#	Modifying user name:	WinNT
#	Modification time:	15. 06. 2019 21:04

#	Program:	/corina/corina34_cracker 3.40 0067  02.08.2006

@<TRIPOS>MOLECULE
ASD06020072
  38   41    0    0    0
SMALL
NO_CHARGES


@<TRIPOS>ATOM
   1 C1            -0.0162     1.3436     0.0094 C.2     
   2 N2             0.0021    -0.0041     0.0020 N.am    
   3 O3             1.0277     1.9653     0.0028 O.2     
   4 O4            -1.1912     2.0008     0.0186 O.3     
   5 C5             1.2188    -0.6847    -0.0133 C.ar    
   6 C6             1.2334    -2.0827    -0.0209 C.ar    
   7 C7             2.4583    -2.7602    -0.0362 C.ar    
   8 C8             3.6337    -1.9673    -0.0435 C.ar    
   9 C9             3.5280    -0.6121    -0.0355 C.ar    
  10 N10            2.3519    -0.0049    -0.0259 N.ar    
  11 S11           -0.0600    -3.2764    -0.0155 S.3     
  12 C12            1.1258    -4.5755    -0.0340 C.2     
  13 N13            2.3235    -4.0871    -0.0425 N.2     
  14 C14            0.8006    -6.0170    -0.0382 C.ar    
  15 C15            1.8241    -6.9675    -0.0533 C.ar    
  16 C16            1.5129    -8.3126    -0.0571 C.ar    
  17 C17            0.1908    -8.7209    -0.0465 C.ar    
  18 C18           -0.8285    -7.7867    -0.0320 C.ar    
  19 C19           -0.5325    -6.4362    -0.0213 C.ar    
  20 F20           -1.5292    -5.5244    -0.0010 F       
  21 Cl21           3.4838    -6.4586    -0.0677 Cl      
  22 C22           -1.1349     3.4517     0.0262 C.3     
  23 C23           -2.5565     4.0172     0.0360 C.3     
  24 C24           -2.7126     5.5339     0.1633 C.3     
  25 C25           -2.9958     4.8452    -1.1733 C.3     
  26 H26           -0.8313    -0.5005     0.0073 H       
  27 H27            4.6062    -2.4368    -0.0550 H       
  28 H28            4.4278    -0.0148    -0.0408 H       
  29 H29            2.3035    -9.0482    -0.0688 H       
  30 H30           -0.0461    -9.7746    -0.0500 H       
  31 H31           -1.8581    -8.1128    -0.0242 H       
  32 H32           -0.6032     3.7900     0.9155 H       
  33 H33           -0.6116     3.7997    -0.8644 H       
  34 H34           -3.3080     3.3918     0.5179 H       
  35 H35           -3.5670     5.9063     0.7286 H       
  36 H36           -1.8025     6.1289     0.2400 H       
  37 H37           -2.2720     4.9871    -1.9758 H       
  38 H38           -4.0365     4.7645    -1.4873 H       
@<TRIPOS>BOND
   1    1    2 am
   2    1    3 2
   3    1    4 1
   4    2    5 1
   5    2   26 1
   6    4   22 1
   7    5    6 ar
   8    5   10 ar
   9    6    7 ar
  10    6   11 1
  11    7    8 ar
  12    7   13 1
  13    8    9 ar
  14    8   27 1
  15    9   10 ar
  16    9   28 1
  17   11   12 1
  18   12   13 2
  19   12   14 1
  20   14   15 ar
  21   14   19 ar
  22   15   16 ar
  23   15   21 1
  24   16   17 ar
  25   16   29 1
  26   17   18 ar
  27   17   30 1
  28   18   19 ar
  29   18   31 1
  30   19   20 1
  31   22   23 1
  32   22   32 1
  33   22   33 1
  34   23   24 1
  35   23   25 1
  36   23   34 1
  37   24   25 1
  38   24   35 1
  39   24   36 1
  40   25   37 1
  41   25   38 1

#	End of record

