#	Name: ASD01882387
#	Creating user name:	WinNT
#	Creation time:	15. 06. 2019 19:44

#	Modifying user name:	WinNT
#	Modification time:	15. 06. 2019 19:44

#	Program:	/corina/corina34_cracker 3.40 0067  02.08.2006

@<TRIPOS>MOLECULE
ASD01882387
  52   56    0    0    0
SMALL
NO_CHARGES


@<TRIPOS>ATOM
   1 C1             0.8679     1.1698     1.5927 C.2     
   2 C2             1.0364    -0.2229     1.5000 C.2     
   3 C3             1.2464    -0.7888     0.2712 C.2     
   4 C4             1.2899     0.0327    -0.8759 C.2     
   5 C5             1.1259     1.3654    -0.7638 C.2     
   6 N6             0.9159     1.9398     0.4561 N.pl3   
   7 N7             0.5669     3.2016     2.1669 N.2     
   8 N8             0.6488     1.9947     2.6054 N.2     
   9 C9             0.7210     3.2250     0.8691 C.2     
  10 N10            1.4166    -2.1663     0.1538 N.pl3   
  11 C11            2.6940    -2.7260    -0.3083 C.3     
  12 C12            2.4234    -3.6618    -1.4906 C.3     
  13 C13            1.3894    -4.7121    -1.0784 C.3     
  14 C14            0.0782    -4.0189    -0.7011 C.3     
  15 C15            0.3241    -3.0873     0.4955 C.3     
  16 O16            1.1585    -5.6064    -2.1687 O.3     
  17 C17            0.0612    -9.0591    -2.5028 C.ar    
  18 C18            0.5133    -7.8042    -2.8565 C.ar    
  19 C19            0.7147    -6.8517    -1.8610 C.ar    
  20 C20            0.4495    -7.2095    -0.5412 C.ar    
  21 C21            0.0002    -8.4852    -0.2694 C.ar    
  22 N22           -0.1789    -9.3604    -1.2409 N.ar    
  23 C23           -0.1665   -10.0966    -3.5718 C.3     
  24 C24            0.6871     4.4482    -0.0104 C.3     
  25 C25           -0.7477     4.7008    -0.4776 C.3     
  26 C26           -1.0133     5.9704    -1.2892 C.3     
  27 C27           -1.0294     4.6044    -1.9784 C.3     
  28 Cl28           0.9793    -1.2121     2.9254 Cl      
  29 H29            1.4557    -0.4089    -1.8475 H       
  30 H30            1.1613     1.9849    -1.6477 H       
  31 H31            3.3536    -1.9182    -0.6253 H       
  32 H32            3.1618    -3.2861     0.5014 H       
  33 H33            2.0398    -3.0841    -2.3315 H       
  34 H34            3.3495    -4.1577    -1.7815 H       
  35 H35            1.7631    -5.2730    -0.2218 H       
  36 H36           -0.2833    -3.4378    -1.5494 H       
  37 H37           -0.6649    -4.7688    -0.4301 H       
  38 H38            0.6025    -3.6763     1.3694 H       
  39 H39           -0.5805    -2.5180     0.7091 H       
  40 H40            0.7083    -7.5642    -3.8913 H       
  41 H41            0.5940    -6.4981     0.2584 H       
  42 H42           -0.2078    -8.7711     0.7510 H       
  43 H43            0.7494   -10.6672    -3.7254 H       
  44 H44           -0.9658   -10.7693    -3.2609 H       
  45 H45           -0.4479    -9.6037    -4.5024 H       
  46 H46            1.0430     5.3108     0.5530 H       
  47 H47            1.3290     4.2904    -0.8771 H       
  48 H48           -1.5298     4.3665     0.2041 H       
  49 H49           -1.9702     6.4710    -1.1418 H       
  50 H50           -0.1657     6.6256    -1.4904 H       
  51 H51           -0.1924     4.3610    -2.6329 H       
  52 H52           -1.9969     4.2065    -2.2843 H       
@<TRIPOS>BOND
   1    1    2 1
   2    1    6 1
   3    1    8 2
   4    2    3 2
   5    2   28 1
   6    3    4 1
   7    3   10 1
   8    4    5 2
   9    4   29 1
  10    5    6 1
  11    5   30 1
  12    6    9 1
  13    7    8 1
  14    7    9 2
  15    9   24 1
  16   10   11 1
  17   10   15 1
  18   11   12 1
  19   11   31 1
  20   11   32 1
  21   12   13 1
  22   12   33 1
  23   12   34 1
  24   13   14 1
  25   13   16 1
  26   13   35 1
  27   14   15 1
  28   14   36 1
  29   14   37 1
  30   15   38 1
  31   15   39 1
  32   16   19 1
  33   17   18 ar
  34   17   22 ar
  35   17   23 1
  36   18   19 ar
  37   18   40 1
  38   19   20 ar
  39   20   21 ar
  40   20   41 1
  41   21   22 ar
  42   21   42 1
  43   23   43 1
  44   23   44 1
  45   23   45 1
  46   24   25 1
  47   24   46 1
  48   24   47 1
  49   25   26 1
  50   25   27 1
  51   25   48 1
  52   26   27 1
  53   26   49 1
  54   26   50 1
  55   27   51 1
  56   27   52 1

#	End of record

