#	Name: ASD01200001
#	Creating user name:	WinNT
#	Creation time:	15. 06. 2019 19:08

#	Modifying user name:	WinNT
#	Modification time:	15. 06. 2019 19:08

#	Program:	/corina/corina34_cracker 3.40 0067  02.08.2006

@<TRIPOS>MOLECULE
ASD01200001
  47   49    0    0    0
SMALL
NO_CHARGES


@<TRIPOS>ATOM
   1 C1            -0.1576     1.8406    -0.1487 C.ar    
   2 C2            -0.0178     0.3411    -0.2043 C.3     
   3 C3            -0.7656    -0.1891    -1.4004 C.2     
   4 N4            -0.6808    -1.4948    -1.7237 N.am    
   5 C5            -1.4518    -2.0053    -2.7615 C.2     
   6 O6            -1.4437     0.5591    -2.0721 O.2     
   7 S7            -1.4443    -3.6355    -3.2767 S.3     
   8 C8            -2.6417    -3.2611    -4.5135 C.2     
   9 C9            -2.9335    -1.9619    -4.4270 C.2     
  10 N10           -2.2851    -1.3159    -3.4759 N.2     
  11 C11            0.9671     2.6423    -0.2059 C.ar    
  12 C12            0.8388     4.0177    -0.1548 C.ar    
  13 C13           -0.4142     4.5915    -0.0470 C.ar    
  14 C14           -1.5390     3.7898     0.0093 C.ar    
  15 C15           -1.4110     2.4145    -0.0462 C.ar    
  16 S16           -0.5776     6.3446     0.0193 S.o2    
  17 O17           -1.7953     6.5568     0.7204 O.2     
  18 O18            0.6617     6.7922     0.5513 O.2     
  19 C19           -0.7454     6.8495    -1.7150 C.3     
  20 C20           -0.5964    -0.2727     1.0721 C.3     
  21 C21            0.2420     0.1658     2.2745 C.3     
  22 C22           -0.4111    -0.3232     3.5791 C.3     
  23 C23            0.6119    -1.2543     4.2620 C.3     
  24 C24            1.9780    -0.8040     3.6874 C.3     
  25 C25            1.6391    -0.4851     2.2101 C.3     
  26 H26            1.0364     0.0774    -0.2887 H       
  27 H27           -0.0817    -2.0782    -1.2321 H       
  28 H28           -3.0654    -3.9608    -5.2186 H       
  29 H29           -3.6457    -1.4789    -5.0796 H       
  30 H30            1.9460     2.1940    -0.2901 H       
  31 H31            1.7176     4.6440    -0.1988 H       
  32 H32           -2.5179     4.2381     0.0939 H       
  33 H33           -2.2898     1.7882    -0.0022 H       
  34 H34           -1.6259     6.3748    -2.1480 H       
  35 H35           -0.8529     7.9328    -1.7693 H       
  36 H36            0.1419     6.5442    -2.2697 H       
  37 H37           -1.6246     0.0644     1.2037 H       
  38 H38           -0.5778    -1.3597     0.9933 H       
  39 H39            0.3355     1.2517     2.2879 H       
  40 H40           -0.6338     0.5253     4.2260 H       
  41 H41           -1.3254    -0.8730     3.3556 H       
  42 H42            0.5892    -1.1182     5.3432 H       
  43 H43            0.4133    -2.2943     4.0032 H       
  44 H44            2.3388     0.0866     4.2019 H       
  45 H45            2.7084    -1.6106     3.7508 H       
  46 H46            1.6065    -1.4009     1.6199 H       
  47 H47            2.3661     0.2123     1.7939 H       
@<TRIPOS>BOND
   1    1    2 1
   2    1   11 ar
   3    1   15 ar
   4    2    3 1
   5    2   20 1
   6    2   26 1
   7    3    4 am
   8    3    6 2
   9    4    5 1
  10    4   27 1
  11    5    7 1
  12    5   10 2
  13    7    8 1
  14    8    9 2
  15    8   28 1
  16    9   10 1
  17    9   29 1
  18   11   12 ar
  19   11   30 1
  20   12   13 ar
  21   12   31 1
  22   13   14 ar
  23   13   16 1
  24   14   15 ar
  25   14   32 1
  26   15   33 1
  27   16   17 2
  28   16   18 2
  29   16   19 1
  30   19   34 1
  31   19   35 1
  32   19   36 1
  33   20   21 1
  34   20   37 1
  35   20   38 1
  36   21   22 1
  37   21   25 1
  38   21   39 1
  39   22   23 1
  40   22   40 1
  41   22   41 1
  42   23   24 1
  43   23   42 1
  44   23   43 1
  45   24   25 1
  46   24   44 1
  47   24   45 1
  48   25   46 1
  49   25   47 1

#	End of record

