#	Name: ASD01881990
#	Creating user name:	WinNT
#	Creation time:	15. 06. 2019 19:43

#	Modifying user name:	WinNT
#	Modification time:	15. 06. 2019 19:43

#	Program:	/corina/corina34_cracker 3.40 0067  02.08.2006

@<TRIPOS>MOLECULE
ASD01881990
  29   31    0    0    0
SMALL
NO_CHARGES


@<TRIPOS>ATOM
   1 N1            -0.0154     1.2840     0.0091 N.pl3   
   2 N2             0.0021    -0.0041     0.0020 N.2     
   3 N3             1.2039    -0.4631    -0.0119 N.2     
   4 C4             2.0717     0.5642    -0.0147 C.ar    
   5 C5             1.2847     1.7283    -0.0009 C.ar    
   6 C6             3.4785     0.6755    -0.0272 C.ar    
   7 C7             4.0636     1.9444    -0.0255 C.ar    
   8 C8             3.2650     3.0834    -0.0118 C.ar    
   9 C9             1.8920     2.9795     0.0007 C.ar    
  10 C10            4.2974    -0.4992    -0.0408 C.1     
  11 N11            4.9470    -1.4311    -0.0517 N.1     
  12 O12            5.4153     2.0660    -0.0370 O.3     
  13 C13            5.9474     3.3922    -0.0346 C.3     
  14 C14           -1.2128     2.1280     0.0196 C.3     
  15 C15           -1.6222     2.4145     1.4657 C.3     
  16 C16           -2.7873     3.3801     1.6920 C.3     
  17 C17           -2.9774     1.8815     1.9350 C.3     
  18 H18            3.7269     4.0597    -0.0103 H       
  19 H19            1.2847     3.8725     0.0113 H       
  20 H20            7.0364     3.3468    -0.0445 H       
  21 H21            5.5979     3.9256    -0.9186 H       
  22 H22            5.6138     3.9159     0.8613 H       
  23 H23           -0.9997     3.0674    -0.4906 H       
  24 H24           -2.0252     1.6125    -0.4927 H       
  25 H25           -0.8083     2.4291     2.1906 H       
  26 H26           -2.7400     4.0297     2.5660 H       
  27 H27           -3.2621     3.8112     0.8107 H       
  28 H28           -3.5773     1.3268     1.2136 H       
  29 H29           -3.0553     1.5452     2.9689 H       
@<TRIPOS>BOND
   1    1    2 1
   2    1    5 1
   3    1   14 1
   4    2    3 2
   5    3    4 1
   6    4    5 ar
   7    4    6 ar
   8    5    9 ar
   9    6    7 ar
  10    6   10 1
  11    7    8 ar
  12    7   12 1
  13    8    9 ar
  14    8   18 1
  15    9   19 1
  16   10   11 3
  17   12   13 1
  18   13   20 1
  19   13   21 1
  20   13   22 1
  21   14   15 1
  22   14   23 1
  23   14   24 1
  24   15   16 1
  25   15   17 1
  26   15   25 1
  27   16   17 1
  28   16   26 1
  29   16   27 1
  30   17   28 1
  31   17   29 1

#	End of record

