#	Name: ASD01560036
#	Creating user name:	WinNT
#	Creation time:	15. 06. 2019 19:22

#	Modifying user name:	WinNT
#	Modification time:	15. 06. 2019 19:22

#	Program:	/corina/corina34_cracker 3.40 0067  02.08.2006

@<TRIPOS>MOLECULE
ASD01560036
  38   41    0    0    0
SMALL
NO_CHARGES


@<TRIPOS>ATOM
   1 O1             0.0021    -0.0041     0.0020 O.2     
   2 C2            -0.0144     1.2117     0.0087 C.2     
   3 N3             1.1471     1.8906     0.0013 N.am    
   4 C4             1.1546     3.2600     0.0090 C.2     
   5 C5             2.4615     4.0103     0.0005 C.3     
   6 S6             3.2207     3.9182     1.6411 S.3     
   7 C7             4.6879     4.8501     1.3520 C.2     
   8 N8             5.5889     5.0383     2.3717 N.am    
   9 C9             6.7139     5.7506     2.1585 C.2     
  10 O10            7.5118     5.9177     3.0604 O.2     
  11 N11            6.9489     6.2760     0.9397 N.am    
  12 C12            6.0400     6.0795    -0.0699 C.2     
  13 N13            4.9160     5.3564     0.1603 N.2     
  14 C14            6.5280     6.7178    -1.1889 C.2     
  15 C15            7.7540     7.3075    -0.8394 C.2     
  16 N16            8.0011     7.0428     0.4270 N.2     
  17 C17            8.6254     8.0964    -1.7456 C.ar    
  18 C18            9.8227     8.6307    -1.2743 C.ar    
  19 C19           10.6292     9.3636    -2.1213 C.ar    
  20 C20           10.2507     9.5680    -3.4359 C.ar    
  21 C21            9.0631     9.0399    -3.9091 C.ar    
  22 C22            8.2518     8.3006    -3.0722 C.ar    
  23 C23           -0.0152     3.9348     0.0238 C.2     
  24 C24           -1.2304     3.2069     0.0310 C.2     
  25 O25           -2.2979     3.7930     0.0440 O.2     
  26 N26           -1.1944     1.8590     0.0179 N.am    
  27 Cl27          -0.0294     5.6707     0.0344 Cl      
  28 H28            1.9871     1.4056    -0.0094 H       
  29 H29            3.1313     3.5651    -0.7352 H       
  30 H30            2.2800     5.0535    -0.2577 H       
  31 H31            5.4154     4.6582     3.2471 H       
  32 H32            6.0542     6.7572    -2.1587 H       
  33 H33           10.1190     8.4720    -0.2479 H       
  34 H34           11.5573     9.7785    -1.7569 H       
  35 H35           10.8846    10.1424    -4.0952 H       
  36 H36            8.7723     9.2025    -4.9364 H       
  37 H37            7.3249     7.8883    -3.4427 H       
  38 H38           -2.0224     1.3537     0.0227 H       
@<TRIPOS>BOND
   1    1    2 2
   2    2    3 am
   3    2   26 am
   4    3    4 1
   5    3   28 1
   6    4    5 1
   7    4   23 2
   8    5    6 1
   9    5   29 1
  10    5   30 1
  11    6    7 1
  12    7    8 1
  13    7   13 2
  14    8    9 am
  15    8   31 1
  16    9   10 2
  17    9   11 am
  18   11   12 1
  19   11   16 1
  20   12   13 1
  21   12   14 2
  22   14   15 1
  23   14   32 1
  24   15   16 2
  25   15   17 1
  26   17   18 ar
  27   17   22 ar
  28   18   19 ar
  29   18   33 1
  30   19   20 ar
  31   19   34 1
  32   20   21 ar
  33   20   35 1
  34   21   22 ar
  35   21   36 1
  36   22   37 1
  37   23   24 1
  38   23   27 1
  39   24   25 2
  40   24   26 am
  41   26   38 1

#	End of record

