#	Name: ASD01040031
#	Creating user name:	WinNT
#	Creation time:	15. 06. 2019 18:58

#	Modifying user name:	WinNT
#	Modification time:	15. 06. 2019 18:58

#	Program:	/corina/corina34_cracker 3.40 0067  02.08.2006

@<TRIPOS>MOLECULE
ASD01040031
  40   42    0    0    0
SMALL
NO_CHARGES


@<TRIPOS>ATOM
   1 O1             1.2992    -0.9147    -0.4311 O.3     
   2 C2             2.2501     0.0497    -0.3352 C.ar    
   3 C3             2.8103     0.5875    -1.4876 C.ar    
   4 C4             3.7756     1.5658    -1.3946 C.ar    
   5 C5             2.6563     0.5004     0.9149 C.ar    
   6 C6             3.6207     1.4787     1.0165 C.ar    
   7 C7             4.1909     2.0176    -0.1395 C.ar    
   8 C8             5.2262     3.0663    -0.0352 C.2     
   9 C9             5.7982     3.4112     1.2827 C.ar    
  10 C10            5.9685     4.7500     1.6436 C.ar    
  11 C11            6.5017     5.0673     2.8735 C.ar    
  12 C12            6.8700     4.0579     3.7546 C.ar    
  13 O13            7.3999     4.3748     4.9638 O.3     
  14 C14            6.7021     2.7250     3.3994 C.ar    
  15 C15            6.1648     2.3994     2.1735 C.ar    
  16 N16            5.6384     3.6923    -1.1144 N.2     
  17 C17            6.7140     4.5309    -1.0484 C.ar    
  18 C18            6.6255     5.8287    -1.5607 C.ar    
  19 C19            5.3414     6.3075    -2.1875 C.3     
  20 C20            7.7159     6.6697    -1.4905 C.ar    
  21 C21            8.8961     6.2317    -0.9151 C.ar    
  22 C22            8.9914     4.9487    -0.4059 C.ar    
  23 C23            7.9072     4.0980    -0.4633 C.ar    
  24 H24            1.6519    -1.8150    -0.4433 H       
  25 H25            2.4887     0.2377    -2.4574 H       
  26 H26            4.2110     1.9827    -2.2907 H       
  27 H27            2.2151     0.0833     1.8081 H       
  28 H28            3.9357     1.8287     1.9885 H       
  29 H29            5.6828     5.5351     0.9592 H       
  30 H30            6.6340     6.1021     3.1531 H       
  31 H31            8.3633     4.4587     4.9612 H       
  32 H32            6.9899     1.9434     4.0869 H       
  33 H33            6.0343     1.3632     1.8984 H       
  34 H34            4.7114     6.7624    -1.4232 H       
  35 H35            5.5661     7.0441    -2.9589 H       
  36 H36            4.8178     5.4621    -2.6340 H       
  37 H37            7.6490     7.6725    -1.8858 H       
  38 H38            9.7484     6.8934    -0.8674 H       
  39 H39            9.9156     4.6140     0.0416 H       
  40 H40            7.9829     3.0969    -0.0652 H       
@<TRIPOS>BOND
   1    1   24 1
   2    1    2 1
   3    2    3 ar
   4    2    5 ar
   5    3   25 1
   6    3    4 ar
   7    4   26 1
   8    4    7 ar
   9    5   27 1
  10    5    6 ar
  11    6   28 1
  12    6    7 ar
  13    7    8 1
  14    8    9 1
  15    8   16 2
  16    9   10 ar
  17    9   15 ar
  18   10   29 1
  19   10   11 ar
  20   11   30 1
  21   11   12 ar
  22   12   14 ar
  23   12   13 1
  24   13   31 1
  25   14   15 ar
  26   14   32 1
  27   15   33 1
  28   16   17 1
  29   17   18 ar
  30   17   23 ar
  31   18   19 1
  32   18   20 ar
  33   19   34 1
  34   19   35 1
  35   19   36 1
  36   20   37 1
  37   20   21 ar
  38   21   22 ar
  39   21   38 1
  40   22   23 ar
  41   22   39 1
  42   23   40 1

#	End of record

