#	Name: ASD01940542
#	Creating user name:	WinNT
#	Creation time:	15. 06. 2019 20:12

#	Modifying user name:	WinNT
#	Modification time:	15. 06. 2019 20:12

#	Program:	/corina/corina34_cracker 3.40 0067  02.08.2006

@<TRIPOS>MOLECULE
ASD01940542
  29   31    0    0    0
SMALL
NO_CHARGES


@<TRIPOS>ATOM
   1 C1            -0.0172     1.4113    -0.0073 C.2     
   2 C2             0.0021    -0.0041     0.0020 C.2     
   3 N3             1.1735     2.0864    -0.0145 N.pl3   
   4 N4             1.1592    -0.6364     0.0035 N.2     
   5 C5             2.3145     0.0332    -0.0036 C.2     
   6 C6             2.3424     1.3845    -0.0130 C.2     
   7 N7             0.8311     3.4426    -0.0227 N.2     
   8 N8            -0.4583     3.5047    -0.0201 N.2     
   9 N9            -0.9716     2.3252    -0.0163 N.2     
  10 N10           -1.1851    -0.7191     0.0100 N.pl3   
  11 C11           -1.1841    -2.1852    -0.1079 C.3     
  12 C12           -2.0311    -2.7656     1.0296 C.3     
  13 N13           -3.3611    -2.1420     1.0129 N.3     
  14 C14           -3.2754    -0.6972     1.2644 C.3     
  15 C15           -2.4790    -0.0326     0.1426 C.3     
  16 C16           -4.2594    -2.7918     1.9766 C.3     
  17 Br17           3.9977     2.2988    -0.0234 Br      
  18 H18            3.2446    -0.5156    -0.0018 H       
  19 H19           -1.6115    -2.4757    -1.0676 H       
  20 H20           -0.1627    -2.5580    -0.0309 H       
  21 H21           -2.1326    -3.8424     0.8946 H       
  22 H22           -1.5461    -2.5624     1.9844 H       
  23 H23           -4.2792    -0.2740     1.2997 H       
  24 H24           -2.7731    -0.5229     2.2159 H       
  25 H25           -2.3134     1.0171     0.3852 H       
  26 H26           -3.0333    -0.1121    -0.7925 H       
  27 H27           -3.8432    -2.7005     2.9799 H       
  28 H28           -5.2369    -2.3107     1.9436 H       
  29 H29           -4.3645    -3.8463     1.7214 H       
@<TRIPOS>BOND
   1    1    2 1
   2    1    3 1
   3    1    9 2
   4    2    4 2
   5    2   10 1
   6    3    6 1
   7    3    7 1
   8    4    5 1
   9    5    6 2
  10    5   18 1
  11    6   17 1
  12    7    8 2
  13    8    9 1
  14   10   11 1
  15   10   15 1
  16   11   12 1
  17   11   19 1
  18   11   20 1
  19   12   13 1
  20   12   21 1
  21   12   22 1
  22   13   14 1
  23   13   16 1
  24   14   15 1
  25   14   23 1
  26   14   24 1
  27   15   25 1
  28   15   26 1
  29   16   27 1
  30   16   28 1
  31   16   29 1

#	End of record

