#	Name: ASD03240974
#	Creating user name:	WinNT
#	Creation time:	15. 06. 2019 20:35

#	Modifying user name:	WinNT
#	Modification time:	15. 06. 2019 20:35

#	Program:	/corina/corina34_cracker 3.40 0067  02.08.2006

@<TRIPOS>MOLECULE
ASD03240974
  77   85    0    0    0
SMALL
NO_CHARGES


@<TRIPOS>ATOM
   1 C1            -0.2650     0.9015     1.5116 C.2     
   2 N2            -0.2314     0.1950     0.3673 N.am    
   3 C3             0.8031     0.5735    -0.4048 C.2     
   4 C4             1.5432     1.6465     0.2922 C.ar    
   5 C5             2.6657     2.4011    -0.0089 C.ar    
   6 C6             3.1131     3.3563     0.8904 C.ar    
   7 C7             2.4476     3.5606     2.0846 C.ar    
   8 C8             1.3234     2.8132     2.3992 C.ar    
   9 C9             0.8646     1.8549     1.5098 C.ar    
  10 O10           -1.0886     0.7799     2.3959 O.2     
  11 O11            1.0827     0.1105    -1.4922 O.2     
  12 C12           -1.1944    -0.8494     0.0093 C.3     
  13 C13           -0.5376    -2.1694    -0.4276 C.3     
  14 C14           -0.5616    -2.5806     1.0540 C.3     
  15 C15           -1.7488    -1.6175     1.2207 C.3     
  16 C16           -0.9280    -4.0493     1.2765 C.3     
  17 O17            0.6045    -2.1824     1.7776 O.3     
  18 C18           -2.2616    -0.3637    -0.9374 C.ar    
  19 C19           -2.2936     0.9668    -1.3153 C.ar    
  20 C20           -3.2678     1.4175    -2.1822 C.ar    
  21 C21           -4.2218     0.5285    -2.6777 C.ar    
  22 C22           -4.1842    -0.8118    -2.2929 C.ar    
  23 C23           -3.2017    -1.2513    -1.4296 C.ar    
  24 N24           -7.2174     3.9675    -4.1029 N.pl3   
  25 C25           -8.1877     4.4277    -4.9514 C.2     
  26 N26           -8.6710     3.6758    -5.9561 N.2     
  27 C27           -8.2424     2.4606    -6.1814 C.2     
  28 C28           -7.2064     1.9012    -5.3158 C.ar    
  29 C29           -6.7084     0.6077    -5.5060 C.ar    
  30 C30           -5.7227     0.1548    -4.6355 C.ar    
  31 C31           -5.2704     1.0057    -3.6081 C.ar    
  32 N32           -5.7663     2.2248    -3.4587 N.ar    
  33 C33           -6.7031     2.6953    -4.2637 C.ar    
  34 C34           -8.4971     5.7180    -4.5429 C.2     
  35 C35           -7.7003     6.0163    -3.4447 C.2     
  36 N36           -6.9432     4.9799    -3.1754 N.2     
  37 C37           -5.1562    -1.2070    -4.7861 C.ar    
  38 C38           -6.0030    -2.3082    -4.9019 C.ar    
  39 C39           -5.4700    -3.5734    -5.0423 C.ar    
  40 C40           -4.0983    -3.7500    -5.0683 C.ar    
  41 C41           -3.2531    -2.6610    -4.9534 C.ar    
  42 C42           -3.7747    -1.3905    -4.8183 C.ar    
  43 C43           -8.8094     1.6488    -7.3175 C.3     
  44 C44           -7.7090     7.3167    -2.6832 C.3     
  45 C45           -6.8435     8.4572    -3.2229 C.3     
  46 C46           -8.3664     8.5242    -3.3546 C.3     
  47 H47            3.1899     2.2455    -0.9403 H       
  48 H48            3.9881     3.9446     0.6567 H       
  49 H49            2.8061     4.3075     2.7773 H       
  50 H50            0.8076     2.9769     3.3338 H       
  51 H51           -1.1750    -2.7852    -1.0621 H       
  52 H52            0.4678    -2.0446    -0.8299 H       
  53 H53           -1.7213    -1.0472     2.1492 H       
  54 H54           -2.7174    -2.0824     1.0369 H       
  55 H55           -0.1994    -4.6857     0.7742 H       
  56 H56           -0.9250    -4.2667     2.3446 H       
  57 H57           -1.9206    -4.2419     0.8694 H       
  58 H58            0.5952    -2.4382     2.7101 H       
  59 H59           -1.5547     1.6542    -0.9307 H       
  60 H60           -3.2920     2.4564    -2.4762 H       
  61 H61           -4.9203    -1.5047    -2.6729 H       
  62 H62           -3.1691    -2.2896    -1.1341 H       
  63 H63           -7.0776    -0.0194    -6.3040 H       
  64 H64           -9.2260     6.3725    -4.9976 H       
  65 H65           -7.0741    -2.1715    -4.8813 H       
  66 H66           -6.1252    -4.4273    -5.1318 H       
  67 H67           -3.6856    -4.7419    -5.1784 H       
  68 H68           -2.1829    -2.8049    -4.9736 H       
  69 H69           -3.1139    -0.5405    -4.7331 H       
  70 H70           -9.5641     2.2350    -7.8417 H       
  71 H71           -8.0098     1.3841    -8.0093 H       
  72 H72           -9.2643     0.7402    -6.9231 H       
  73 H73           -7.8062     7.2273    -1.6012 H       
  74 H74           -6.3716     9.1183    -2.4960 H       
  75 H75           -6.2679     8.2668    -4.1287 H       
  76 H76           -8.7926     8.3780    -4.3471 H       
  77 H77           -8.8963     9.2294    -2.7144 H       
@<TRIPOS>BOND
   1    1    2 am
   2    1    9 1
   3    1   10 2
   4    2    3 am
   5    2   12 1
   6    3    4 1
   7    3   11 2
   8    4    5 ar
   9    4    9 ar
  10    5    6 ar
  11    5   47 1
  12    6    7 ar
  13    6   48 1
  14    7    8 ar
  15    7   49 1
  16    8    9 ar
  17    8   50 1
  18   12   13 1
  19   12   15 1
  20   12   18 1
  21   13   14 1
  22   13   51 1
  23   13   52 1
  24   14   15 1
  25   14   16 1
  26   14   17 1
  27   15   53 1
  28   15   54 1
  29   16   55 1
  30   16   56 1
  31   16   57 1
  32   17   58 1
  33   18   19 ar
  34   18   23 ar
  35   19   20 ar
  36   19   59 1
  37   20   21 ar
  38   20   60 1
  39   21   22 ar
  40   21   31 1
  41   22   23 ar
  42   22   61 1
  43   23   62 1
  44   24   25 1
  45   24   33 1
  46   24   36 1
  47   25   26 1
  48   25   34 2
  49   26   27 2
  50   27   28 1
  51   27   43 1
  52   28   29 ar
  53   28   33 ar
  54   29   30 ar
  55   29   63 1
  56   30   31 ar
  57   30   37 1
  58   31   32 ar
  59   32   33 ar
  60   34   35 1
  61   34   64 1
  62   35   36 2
  63   35   44 1
  64   37   38 ar
  65   37   42 ar
  66   38   39 ar
  67   38   65 1
  68   39   40 ar
  69   39   66 1
  70   40   41 ar
  71   40   67 1
  72   41   42 ar
  73   41   68 1
  74   42   69 1
  75   43   70 1
  76   43   71 1
  77   43   72 1
  78   44   45 1
  79   44   46 1
  80   44   73 1
  81   45   46 1
  82   45   74 1
  83   45   75 1
  84   46   76 1
  85   46   77 1

#	End of record

