#	Name: ASD01914999
#	Creating user name:	WinNT
#	Creation time:	15. 06. 2019 20:04

#	Modifying user name:	WinNT
#	Modification time:	15. 06. 2019 20:04

#	Program:	/corina/corina34_cracker 3.40 0067  02.08.2006

@<TRIPOS>MOLECULE
ASD01914999
  48   51    0    0    0
SMALL
NO_CHARGES


@<TRIPOS>ATOM
   1 C1            -0.2253     1.4555    -1.1228 C.ar    
   2 C2            -0.2364     0.0830    -1.2785 C.ar    
   3 C3             0.9411    -0.6389    -1.1520 C.ar    
   4 C4             2.1298     0.0173    -0.8687 C.ar    
   5 C5             2.1409     1.3897    -0.7130 C.ar    
   6 C6             0.9635     2.1117    -0.8399 C.ar    
   7 O7             0.9746     3.4629    -0.6871 O.3     
   8 C8             2.2339     4.0726    -0.3970 C.3     
   9 C9             2.0516     5.5625    -0.2628 C.2     
  10 C10            0.8430     6.2600    -0.3922 C.2     
  11 N11            2.9959     6.4352     0.0016 N.2     
  12 C12            1.1677     7.5718    -0.1932 C.2     
  13 C13            0.3484     8.7932    -0.1945 C.2     
  14 N14            2.5212     7.6177     0.0589 N.pl3   
  15 C15            3.1961     8.8874     0.3537 C.3     
  16 C16            2.4694    10.0231    -0.3653 C.3     
  17 N17            1.0218     9.9691    -0.1750 N.am    
  18 O18           -0.8672     8.7503    -0.2125 O.2     
  19 C19            0.3154    11.1583     0.0375 C.ar    
  20 C20           -0.9719    12.5798     1.4774 C.ar    
  21 C21           -0.2756    11.4053     1.2697 C.ar    
  22 C22            0.2092    12.0956    -0.9817 C.ar    
  23 C23           -0.4880    13.2688    -0.7697 C.ar    
  24 C24           -1.0806    13.5110     0.4582 C.ar    
  25 F25           -1.7621    14.6592     0.6634 F       
  26 C26            3.1725     9.1403     1.8625 C.3     
  27 O27            0.9301    -1.9900    -1.3053 O.3     
  28 C28            2.1790    -2.6694    -1.1615 C.3     
  29 H29           -1.1414     2.0181    -1.2256 H       
  30 H30           -1.1621    -0.4280    -1.4984 H       
  31 H31            3.0465    -0.5449    -0.7695 H       
  32 H32            3.0664     1.9006    -0.4920 H       
  33 H33            2.6266     3.6691     0.5363 H       
  34 H34            2.9338     3.8637    -1.2061 H       
  35 H35           -0.1333     5.8494    -0.6034 H       
  36 H36            4.2287     8.8396     0.0081 H       
  37 H37            2.8392    10.9751     0.0154 H       
  38 H38            2.6889     9.9628    -1.4313 H       
  39 H39           -1.4319    12.7722     2.4353 H       
  40 H40           -0.1911    10.6794     2.0648 H       
  41 H41            0.6719    11.9074    -1.9393 H       
  42 H42           -0.5708    13.9980    -1.5621 H       
  43 H43            3.6876     8.3279     2.3752 H       
  44 H44            3.6738    10.0833     2.0808 H       
  45 H45            2.1394     9.1898     2.2065 H       
  46 H46            2.8834    -2.2960    -1.9048 H       
  47 H47            2.5766    -2.4912    -0.1624 H       
  48 H48            2.0296    -3.7392    -1.3076 H       
@<TRIPOS>BOND
   1    1    2 ar
   2    1    6 ar
   3    1   29 1
   4    2    3 ar
   5    2   30 1
   6    3    4 ar
   7    3   27 1
   8    4    5 ar
   9    4   31 1
  10    5    6 ar
  11    5   32 1
  12    6    7 1
  13    7    8 1
  14    8    9 1
  15    8   33 1
  16    8   34 1
  17    9   11 2
  18    9   10 1
  19   10   12 2
  20   10   35 1
  21   11   14 1
  22   12   14 1
  23   12   13 1
  24   13   17 am
  25   13   18 2
  26   14   15 1
  27   15   16 1
  28   15   26 1
  29   15   36 1
  30   16   17 1
  31   16   37 1
  32   16   38 1
  33   17   19 1
  34   19   22 ar
  35   19   21 ar
  36   20   21 ar
  37   20   24 ar
  38   20   39 1
  39   21   40 1
  40   22   23 ar
  41   22   41 1
  42   23   24 ar
  43   23   42 1
  44   24   25 1
  45   26   43 1
  46   26   44 1
  47   26   45 1
  48   27   28 1
  49   28   46 1
  50   28   47 1
  51   28   48 1

#	End of record

