#	Name: ASD00069287
#	Creating user name:	WinNT
#	Creation time:	15. 06. 2019 18:29

#	Modifying user name:	WinNT
#	Modification time:	15. 06. 2019 18:29

#	Program:	/corina/corina34_cracker 3.40 0067  02.08.2006

@<TRIPOS>MOLECULE
ASD00069287
  51   52    0    0    0
SMALL
NO_CHARGES


@<TRIPOS>ATOM
   1 N1            -0.0169     1.3952     0.0097 N.pl3   
   2 N2             0.0021    -0.0041     0.0020 N.2     
   3 C3             1.2420    -0.4088    -0.0120 C.2     
   4 C4             2.0738     0.7314    -0.0138 C.2     
   5 C5             1.2501     1.8374    -0.0000 C.2     
   6 C6            -1.2171     2.2353     0.0202 C.3     
   7 O7            -0.8347     3.6122     0.0252 O.3     
   8 C8            -1.9370     4.5215     0.0356 C.3     
   9 C9            -1.4125     5.9588     0.0402 C.3     
  10 Si10          -2.8496     7.1442     0.0537 Si      
  11 C11           -3.8795     6.8542     1.5787 C.3     
  12 C12           -2.2109     8.8943     0.0592 C.3     
  13 C13           -3.8954     6.8697    -1.4635 C.3     
  14 O14            4.5237    -0.3938    -0.0428 O.3     
  15 B15            3.6437     0.7392    -0.0283 Du      
  16 O16            4.5125     1.8809    -0.0305 O.3     
  17 C17            5.5814     1.5248    -0.9324 C.3     
  18 C18            5.5890    -0.0174    -0.9407 C.3     
  19 C19            6.9300    -0.5467    -0.4284 C.3     
  20 C20            5.3097    -0.5443    -2.3497 C.3     
  21 C21            5.2968     2.0641    -2.3356 C.3     
  22 C22            6.9172     2.0617    -0.4143 C.3     
  23 H23            1.5741    -1.4365    -0.0201 H       
  24 H24            1.5666     2.8700     0.0022 H       
  25 H25           -1.8140     2.0272    -0.8677 H       
  26 H26           -1.8047     2.0182     0.9122 H       
  27 H27           -2.5489     4.3608    -0.8521 H       
  28 H28           -2.5396     4.3518     0.9279 H       
  29 H29           -0.8006     6.1194     0.9278 H       
  30 H30           -0.8098     6.1285    -0.8521 H       
  31 H31           -3.2676     7.0149     2.4664 H       
  32 H32           -4.7203     7.5478     1.5866 H       
  33 H33           -4.2532     5.8303     1.5755 H       
  34 H34           -1.6082     9.0640    -0.8331 H       
  35 H35           -3.0517     9.5879     0.0671 H       
  36 H36           -1.5990     9.0550     0.9469 H       
  37 H37           -4.2690     5.8457    -1.4667 H       
  38 H38           -4.7362     7.5633    -1.4556 H       
  39 H39           -3.2927     7.0394    -2.3557 H       
  40 H40            6.8986    -1.6354    -0.3857 H       
  41 H41            7.7263    -0.2324    -1.1031 H       
  42 H42            7.1205    -0.1493     0.5685 H       
  43 H43            4.3597    -0.1452    -2.7051 H       
  44 H44            6.1095    -0.2300    -3.0203 H       
  45 H45            5.2610    -1.6330    -2.3275 H       
  46 H46            5.2374     3.1520    -2.3016 H       
  47 H47            6.0996     1.7650    -3.0095 H       
  48 H48            4.3508     1.6596    -2.6954 H       
  49 H49            7.1116     1.6555     0.5783 H       
  50 H50            7.7165     1.7626    -1.0923 H       
  51 H51            6.8750     3.1496    -0.3598 H       
@<TRIPOS>BOND
   1    1    2 1
   2    1    5 1
   3    1    6 1
   4    2    3 2
   5    3    4 1
   6    3   23 1
   7    4    5 2
   8    4   15 1
   9    5   24 1
  10    6    7 1
  11    6   25 1
  12    6   26 1
  13    7    8 1
  14    8    9 1
  15    8   27 1
  16    8   28 1
  17    9   10 1
  18    9   29 1
  19    9   30 1
  20   10   11 1
  21   10   12 1
  22   10   13 1
  23   11   31 1
  24   11   32 1
  25   11   33 1
  26   12   34 1
  27   12   35 1
  28   12   36 1
  29   13   37 1
  30   13   38 1
  31   13   39 1
  32   14   15 1
  33   14   18 1
  34   15   16 1
  35   16   17 1
  36   17   18 1
  37   17   21 1
  38   17   22 1
  39   18   19 1
  40   18   20 1
  41   19   40 1
  42   19   41 1
  43   19   42 1
  44   20   43 1
  45   20   44 1
  46   20   45 1
  47   21   46 1
  48   21   47 1
  49   21   48 1
  50   22   49 1
  51   22   50 1
  52   22   51 1

#	End of record

