#	Name: ASD03930013
#	Creating user name:	WinNT
#	Creation time:	15. 06. 2019 20:47

#	Modifying user name:	WinNT
#	Modification time:	15. 06. 2019 20:47

#	Program:	/corina/corina34_cracker 3.40 0067  02.08.2006

@<TRIPOS>MOLECULE
ASD03930013
  27   29    0    0    0
SMALL
NO_CHARGES


@<TRIPOS>ATOM
   1 C1            -0.0164     1.3554     0.0095 C.ar    
   2 C2             0.0021    -0.0041     0.0020 C.ar    
   3 C3             1.2067    -0.6966     0.0005 C.ar    
   4 C4             2.4117    -0.0456     0.0054 C.ar    
   5 C5             2.4305     1.3562    -0.0184 C.ar    
   6 C6             1.1972     2.0644     0.0017 C.ar    
   7 C7             3.6458    -0.9051     0.0598 C.3     
   8 N8             4.7700    -0.2721    -0.6407 N.am    
   9 S9             5.1701     1.2720    -0.1493 S.o2    
  10 C10            3.6158     2.1127    -0.0821 C.ar    
  11 C11            3.5816     3.4692    -0.0889 C.ar    
  12 C12            2.3696     4.1555    -0.0385 C.ar    
  13 C13            1.1953     3.4698     0.0073 C.ar    
  14 O14            5.6435     1.1709     1.1867 O.2     
  15 O15            5.9141     1.8624    -1.2063 O.2     
  16 C16            5.4998    -0.9572    -1.7105 C.3     
  17 I17           -0.6205     4.5118     0.0873 I       
  18 H18           -0.9567     1.8866     0.0169 H       
  19 H19           -0.9290    -0.5512    -0.0025 H       
  20 H20            1.1924    -1.7765    -0.0042 H       
  21 H21            3.9212    -1.0682     1.1018 H       
  22 H22            3.4314    -1.8670    -0.4059 H       
  23 H23            4.5066     4.0249    -0.1337 H       
  24 H24            2.3625     5.2354    -0.0363 H       
  25 H25            5.0296    -0.7381    -2.6691 H       
  26 H26            6.5331    -0.6108    -1.7250 H       
  27 H27            5.4795    -2.0325    -1.5332 H       
@<TRIPOS>BOND
   1    1    2 ar
   2    1    6 ar
   3    1   18 1
   4    2    3 ar
   5    2   19 1
   6    3    4 ar
   7    3   20 1
   8    4    5 ar
   9    4    7 1
  10    5    6 ar
  11    5   10 ar
  12    6   13 ar
  13    7    8 1
  14    7   21 1
  15    7   22 1
  16    8    9 am
  17    8   16 1
  18    9   10 1
  19    9   14 2
  20    9   15 2
  21   10   11 ar
  22   11   12 ar
  23   11   23 1
  24   12   13 ar
  25   12   24 1
  26   13   17 1
  27   16   25 1
  28   16   26 1
  29   16   27 1

#	End of record

