#	Name: ASD03091817
#	Creating user name:	WinNT
#	Creation time:	15. 06. 2019 20:31

#	Modifying user name:	WinNT
#	Modification time:	15. 06. 2019 20:31

#	Program:	/corina/corina34_cracker 3.40 0067  02.08.2006

@<TRIPOS>MOLECULE
ASD03091817
  53   57    0    0    0
SMALL
NO_CHARGES


@<TRIPOS>ATOM
   1 N1            -0.0169     1.3919     0.0097 N.pl3   
   2 C2             0.0021    -0.0041     0.0020 C.ar    
   3 C3            -1.1927    -0.7144     0.0096 C.ar    
   4 C4            -1.1762    -2.0930     0.0025 C.ar    
   5 C5             0.0397    -2.7745    -0.0128 C.ar    
   6 C6             1.2366    -2.0602    -0.0208 C.ar    
   7 C7             1.2156    -0.6816    -0.0189 C.ar    
   8 N8             0.3737    -8.3788    -0.0417 N.pl3   
   9 C9             1.7322    -8.5407    -0.0567 C.2     
  10 C10            2.3362    -7.3420    -0.0578 C.2     
  11 C11            1.2775    -6.3293    -0.0422 C.ar    
  12 C12            1.2716    -4.9343    -0.0351 C.ar    
  13 C13            0.0598    -4.2580    -0.0199 C.ar    
  14 C14           -1.1428    -4.9728    -0.0109 C.ar    
  15 C15           -1.1420    -6.3376    -0.0169 C.ar    
  16 C16            0.0613    -7.0374    -0.0326 C.ar    
  17 C17           -0.6036    -9.4702    -0.0417 C.3     
  18 C18            2.2926     4.3572    -0.4661 C.3     
  19 C19            1.0038     3.5300    -0.5989 C.3     
  20 C20            1.2418     2.1416     0.0017 C.3     
  21 C21            1.7609     2.2807     1.4357 C.3     
  22 C22            2.9983     3.1925     1.4306 C.3     
  23 C23            3.9355     2.7115     0.2989 C.3     
  24 C24            3.4692     3.4811    -0.9544 C.3     
  25 N25            2.5513     4.5397     0.9869 N.3     
  26 C26            3.6001     5.5433     1.2129 C.3     
  27 H27           -0.8634     1.8654     0.0163 H       
  28 H28           -2.1346    -0.1861     0.0214 H       
  29 H29           -2.1048    -2.6446     0.0091 H       
  30 H30            2.1798    -2.5862    -0.0327 H       
  31 H31            2.1428    -0.1278    -0.0296 H       
  32 H32            2.2430    -9.4922    -0.0659 H       
  33 H33            3.4005    -7.1588    -0.0678 H       
  34 H34            2.2018    -4.3856    -0.0408 H       
  35 H35           -2.0816    -4.4390     0.0013 H       
  36 H36           -2.0780    -6.8765    -0.0090 H       
  37 H37           -0.8361    -9.7497     0.9859 H       
  38 H38           -1.5139    -9.1428    -0.5439 H       
  39 H39           -0.1880   -10.3301    -0.5670 H       
  40 H40            2.2311     5.3025    -1.0053 H       
  41 H41            0.1948     4.0260    -0.0627 H       
  42 H42            0.7399     3.4319    -1.6519 H       
  43 H43            1.9779     1.6078    -0.5994 H       
  44 H44            0.9859     2.7205     2.0634 H       
  45 H45            2.0327     1.2986     1.8224 H       
  46 H46            3.4979     3.2120     2.3991 H       
  47 H47            4.9709     2.9593     0.5328 H       
  48 H48            3.8267     1.6376     0.1470 H       
  49 H49            3.1311     2.7857    -1.7226 H       
  50 H50            4.2753     4.1073    -1.3367 H       
  51 H51            3.2862     6.4981     0.7911 H       
  52 H52            3.7693     5.6571     2.2836 H       
  53 H53            4.5228     5.2192     0.7316 H       
@<TRIPOS>BOND
   1    1    2 1
   2    1   20 1
   3    1   27 1
   4    2    3 ar
   5    2    7 ar
   6    3    4 ar
   7    3   28 1
   8    4    5 ar
   9    4   29 1
  10    5    6 ar
  11    5   13 1
  12    6    7 ar
  13    6   30 1
  14    7   31 1
  15    8    9 1
  16    8   16 1
  17    8   17 1
  18    9   10 2
  19    9   32 1
  20   10   11 1
  21   10   33 1
  22   11   12 ar
  23   11   16 ar
  24   12   13 ar
  25   12   34 1
  26   13   14 ar
  27   14   15 ar
  28   14   35 1
  29   15   16 ar
  30   15   36 1
  31   17   37 1
  32   17   38 1
  33   17   39 1
  34   18   19 1
  35   18   24 1
  36   18   25 1
  37   18   40 1
  38   19   20 1
  39   19   41 1
  40   19   42 1
  41   20   21 1
  42   20   43 1
  43   21   22 1
  44   21   44 1
  45   21   45 1
  46   22   23 1
  47   22   25 1
  48   22   46 1
  49   23   24 1
  50   23   47 1
  51   23   48 1
  52   24   49 1
  53   24   50 1
  54   25   26 1
  55   26   51 1
  56   26   52 1
  57   26   53 1

#	End of record

