#	Name: ASD04590365
#	Creating user name:	WinNT
#	Creation time:	15. 06. 2019 20:50

#	Modifying user name:	WinNT
#	Modification time:	15. 06. 2019 20:50

#	Program:	/corina/corina34_cracker 3.40 0067  02.08.2006

@<TRIPOS>MOLECULE
ASD04590365
  42   45    0    0    0
SMALL
NO_CHARGES


@<TRIPOS>ATOM
   1 C1            -0.0167     1.3832     0.0096 C.ar    
   2 C2             0.0021    -0.0041     0.0020 C.ar    
   3 C3             1.1969    -0.6869    -0.0131 C.ar    
   4 C4             2.4020     0.0223    -0.0208 C.ar    
   5 C5             2.3769     1.4283    -0.0131 C.ar    
   6 C6             1.1624     2.0986     0.0022 C.ar    
   7 N7             3.7040    -0.3551    -0.0358 N.2     
   8 C8             4.4709     0.7083    -0.0377 C.2     
   9 N9             3.6969     1.8375    -0.0240 N.pl3   
  10 C10            5.9482     0.6906    -0.0520 C.2     
  11 C11            6.7657    -0.4631    -0.0663 C.2     
  12 C12            8.0579    -0.0539    -0.0773 C.2     
  13 N13            8.0646     1.3050    -0.0703 N.pl3   
  14 N14            6.7360     1.7480    -0.0595 N.2     
  15 N15            6.3188    -1.7944    -0.0680 N.am    
  16 C16            7.2108    -2.8046    -0.0824 C.2     
  17 C17            6.7414    -4.2032    -0.0842 C.ar    
  18 O18            8.4027    -2.5633    -0.0939 O.2     
  19 C19            6.5304    -4.8760     1.1242 C.ar    
  20 C20            6.0900    -6.1861     1.1133 C.ar    
  21 C21            5.8584    -6.8321    -0.0875 C.ar    
  22 C22            6.0648    -6.1746    -1.2867 C.ar    
  23 C23            6.4991    -4.8624    -1.2942 C.ar    
  24 F24            6.6997    -4.2219    -2.4667 F       
  25 F25            6.7568    -4.2472     2.2983 F       
  26 C26           -1.2962    -0.7693     0.0109 C.3     
  27 C27            1.2064    -2.1939    -0.0208 C.3     
  28 H28           -0.9614     1.9066     0.0170 H       
  29 H29            1.1403     3.1784     0.0079 H       
  30 H30            4.0155     2.7537    -0.0225 H       
  31 H31            8.9276    -0.6941    -0.0891 H       
  32 H32            8.8529     1.8702    -0.0753 H       
  33 H33            5.3682    -1.9869    -0.0588 H       
  34 H34            5.9266    -6.7070     2.0452 H       
  35 H35            5.5147    -7.8559    -0.0889 H       
  36 H36            5.8819    -6.6866    -2.2199 H       
  37 H37           -1.6194    -0.9483    -1.0146 H       
  38 H38           -1.1522    -1.7232     0.5182 H       
  39 H39           -2.0559    -0.1898     0.5354 H       
  40 H40            1.1986    -2.5520    -1.0502 H       
  41 H41            2.1036    -2.5541     0.4825 H       
  42 H42            0.3238    -2.5655     0.4998 H       
@<TRIPOS>BOND
   1    1    2 ar
   2    1    6 ar
   3    1   28 1
   4    2    3 ar
   5    2   26 1
   6    3    4 ar
   7    3   27 1
   8    4    5 ar
   9    4    7 1
  10    5    6 ar
  11    5    9 1
  12    6   29 1
  13    7    8 2
  14    8    9 1
  15    8   10 1
  16    9   30 1
  17   10   11 1
  18   10   14 2
  19   11   12 2
  20   11   15 1
  21   12   13 1
  22   12   31 1
  23   13   14 1
  24   13   32 1
  25   15   16 am
  26   15   33 1
  27   16   17 1
  28   16   18 2
  29   17   19 ar
  30   17   23 ar
  31   19   20 ar
  32   19   25 1
  33   20   21 ar
  34   20   34 1
  35   21   22 ar
  36   21   35 1
  37   22   23 ar
  38   22   36 1
  39   23   24 1
  40   26   37 1
  41   26   38 1
  42   26   39 1
  43   27   40 1
  44   27   41 1
  45   27   42 1

#	End of record

