#	Name: ASD01885656
#	Creating user name:	WinNT
#	Creation time:	15. 06. 2019 19:49

#	Modifying user name:	WinNT
#	Modification time:	15. 06. 2019 19:49

#	Program:	/corina/corina34_cracker 3.40 0067  02.08.2006

@<TRIPOS>MOLECULE
ASD01885656
  50   53    0    0    0
SMALL
NO_CHARGES


@<TRIPOS>ATOM
   1 C1            -0.0170     1.4041     0.0098 C.ar    
   2 C2             1.2136     2.1082     0.0018 C.ar    
   3 C3             1.1959     3.5259     0.0097 C.ar    
   4 C4            -0.0388     4.1602     0.0249 C.ar    
   5 C5            -1.2084     3.3917     0.0319 C.ar    
   6 N6            -1.1703     2.0727     0.0299 N.ar    
   7 C7             0.0021    -0.0041     0.0020 C.ar    
   8 C8             1.1922    -0.6628    -0.0129 C.ar    
   9 C9             2.3993     0.0338    -0.0203 C.ar    
  10 C10            2.4201     1.3962    -0.0132 C.ar    
  11 C11            2.4548     4.3054     0.0024 C.ar    
  12 C12            2.6330     5.3384    -0.9182 C.ar    
  13 C13            3.8074     6.0615    -0.9210 C.ar    
  14 C14            4.8096     5.7633    -0.0113 C.ar    
  15 C15            4.6374     4.7381     0.9052 C.ar    
  16 C16            3.4644     4.0129     0.9198 C.ar    
  17 C17           -2.5233     4.0769     0.0552 C.2     
  18 N18           -3.6601     3.3531     0.0740 N.am    
  19 O19           -2.5758     5.2907     0.0574 O.2     
  20 C20            1.2056    -2.1697    -0.0211 C.3     
  21 F21            5.9585     6.4742    -0.0183 F       
  22 N22            1.1967    -2.6506    -1.4049 N.am    
  23 C23            2.3180    -2.8783    -2.1000 C.2     
  24 C24            1.9544    -3.3643    -3.4861 C.3     
  25 C25            0.4123    -3.3781    -3.4714 C.3     
  26 C26            0.0667    -2.9038    -2.0766 C.2     
  27 O27            3.4459    -2.7199    -1.6848 O.2     
  28 O28           -1.0557    -2.7679    -1.6392 O.2     
  29 C29            2.4741    -2.3954    -4.5500 C.3     
  30 C30            2.5033    -4.7725    -3.7241 C.3     
  31 H31           -0.0964     5.2386     0.0317 H       
  32 H32           -0.9245    -0.5588     0.0083 H       
  33 H33            3.3303    -0.5134    -0.0315 H       
  34 H34            3.3620     1.9245    -0.0186 H       
  35 H35            1.8528     5.5713    -1.6277 H       
  36 H36            3.9464     6.8611    -1.6335 H       
  37 H37            5.4214     4.5093     1.6118 H       
  38 H38            3.3311     3.2142     1.6344 H       
  39 H39           -3.6181     2.3840     0.0723 H       
  40 H40           -4.5202     3.8013     0.0893 H       
  41 H41            2.1037    -2.5278     0.4822 H       
  42 H42            0.3238    -2.5437     0.4992 H       
  43 H43            0.0154    -2.6947    -4.2220 H       
  44 H44            0.0361    -4.3882    -3.6336 H       
  45 H45            3.5612    -2.3410    -4.4920 H       
  46 H46            2.1802    -2.7491    -5.5382 H       
  47 H47            2.0511    -1.4057    -4.3777 H       
  48 H48            2.1008    -5.4513    -2.9721 H       
  49 H49            2.2092    -5.1142    -4.7165 H       
  50 H50            3.5908    -4.7554    -3.6531 H       
@<TRIPOS>BOND
   1    1    7 ar
   2    1    2 ar
   3    1    6 ar
   4    2    3 ar
   5    2   10 ar
   6    3   11 1
   7    3    4 ar
   8    4    5 ar
   9    4   31 1
  10    5   17 1
  11    5    6 ar
  12    7    8 ar
  13    7   32 1
  14    8    9 ar
  15    8   20 1
  16    9   10 ar
  17    9   33 1
  18   10   34 1
  19   11   12 ar
  20   11   16 ar
  21   12   13 ar
  22   12   35 1
  23   13   14 ar
  24   13   36 1
  25   14   15 ar
  26   14   21 1
  27   15   16 ar
  28   15   37 1
  29   16   38 1
  30   17   18 am
  31   17   19 2
  32   18   39 1
  33   18   40 1
  34   20   22 1
  35   20   41 1
  36   20   42 1
  37   22   23 am
  38   22   26 am
  39   23   24 1
  40   23   27 2
  41   24   25 1
  42   24   29 1
  43   24   30 1
  44   25   26 1
  45   25   43 1
  46   25   44 1
  47   26   28 2
  48   29   45 1
  49   29   46 1
  50   29   47 1
  51   30   48 1
  52   30   49 1
  53   30   50 1

#	End of record

