#	Name: ASD01240003
#	Creating user name:	WinNT
#	Creation time:	15. 06. 2019 19:15

#	Modifying user name:	WinNT
#	Modification time:	15. 06. 2019 19:15

#	Program:	/corina/corina34_cracker 3.40 0067  02.08.2006

@<TRIPOS>MOLECULE
ASD01240003
  40   41    0    0    0
SMALL
NO_CHARGES


@<TRIPOS>ATOM
   1 C1             0.0038     1.3005     0.1465 C.2     
   2 C2             0.0502    -0.0353     0.2776 C.2     
   3 C3            -1.1901    -0.8268     0.1985 C.ar    
   4 C4            -1.8810    -0.9283    -1.0124 C.ar    
   5 C5            -3.0403    -1.6701    -1.0815 C.ar    
   6 C6            -3.5226    -2.3159     0.0496 C.ar    
   7 O7            -4.6662    -3.0458    -0.0234 O.3     
   8 C8            -2.8394    -2.2184     1.2549 C.ar    
   9 C9            -1.6764    -1.4833     1.3327 C.ar    
  10 C10            1.2536     2.0785     0.0839 C.ar    
  11 C11            2.0798     1.9887    -1.0400 C.ar    
  12 C12            3.2474     2.7186    -1.0941 C.ar    
  13 C13            3.6040     3.5420    -0.0340 C.ar    
  14 O14            4.7564     4.2594    -0.0917 O.3     
  15 C15            2.7861     3.6349     1.0847 C.ar    
  16 C16            1.6139     2.9130     1.1458 C.ar    
  17 C17           -1.3263     2.0031     0.0571 C.3     
  18 C18           -1.7644     2.4454     1.4548 C.3     
  19 C19            1.3707    -0.7246     0.5056 C.3     
  20 C20            1.5951    -0.9131     2.0073 C.3     
  21 H21           -1.5071    -0.4259    -1.8922 H       
  22 H22           -3.5748    -1.7491    -2.0166 H       
  23 H23           -4.5261    -3.9746    -0.2532 H       
  24 H24           -3.2181    -2.7226     2.1317 H       
  25 H25           -1.1436    -1.4114     2.2693 H       
  26 H26            1.8037     1.3481    -1.8645 H       
  27 H27            3.8864     2.6499    -1.9621 H       
  28 H28            4.6537     5.1378    -0.4827 H       
  29 H29            3.0674     4.2768     1.9064 H       
  30 H30            0.9765     2.9890     2.0143 H       
  31 H31           -1.2331     2.8768    -0.5879 H       
  32 H32           -2.0696     1.3225    -0.3582 H       
  33 H33           -2.6947     3.0088     1.3827 H       
  34 H34           -1.9190     1.5674     2.0819 H       
  35 H35           -0.9915     3.0752     1.8955 H       
  36 H36            1.3622    -1.6977     0.0146 H       
  37 H37            2.1746    -0.1159     0.0917 H       
  38 H38            2.5931    -1.3168     2.1777 H       
  39 H39            1.5010     0.0483     2.5122 H       
  40 H40            0.8510    -1.6050     2.4018 H       
@<TRIPOS>BOND
   1    1    2 2
   2    1   10 1
   3    1   17 1
   4    2    3 1
   5    2   19 1
   6    3    4 ar
   7    3    9 ar
   8    4    5 ar
   9    4   21 1
  10    5    6 ar
  11    5   22 1
  12    6    7 1
  13    6    8 ar
  14    7   23 1
  15    8    9 ar
  16    8   24 1
  17    9   25 1
  18   10   11 ar
  19   10   16 ar
  20   11   12 ar
  21   11   26 1
  22   12   13 ar
  23   12   27 1
  24   13   14 1
  25   13   15 ar
  26   14   28 1
  27   15   16 ar
  28   15   29 1
  29   16   30 1
  30   17   18 1
  31   17   31 1
  32   17   32 1
  33   18   33 1
  34   18   34 1
  35   18   35 1
  36   19   20 1
  37   19   36 1
  38   19   37 1
  39   20   38 1
  40   20   39 1
  41   20   40 1

#	End of record

