#	Name: ASD01180275
#	Creating user name:	WinNT
#	Creation time:	15. 06. 2019 19:07

#	Modifying user name:	WinNT
#	Modification time:	15. 06. 2019 19:07

#	Program:	/corina/corina34_cracker 3.40 0067  02.08.2006

@<TRIPOS>MOLECULE
ASD01180275
  17   17    0    0    0
SMALL
NO_CHARGES


@<TRIPOS>ATOM
   1 C1             0.0021    -0.0041     0.0020 C.1     
   2 C2            -0.0173     1.4278     0.0099 C.ar    
   3 C3             1.1851     2.1492     0.0023 C.ar    
   4 C4             1.1550     3.5345     0.0095 C.ar    
   5 C5            -0.0560     4.2013     0.0242 C.ar    
   6 C6            -1.2465     3.4918     0.0318 C.ar    
   7 C7            -1.2343     2.1136     0.0193 C.ar    
   8 N8             0.0175    -1.1399    -0.0042 N.1     
   9 O9             2.3731     1.4934    -0.0117 O.3     
  10 C10            3.5564     2.2947    -0.0187 C.3     
  11 Br11          -0.0883     6.0920     0.0346 Br      
  12 H12            2.0787     4.0940     0.0041 H       
  13 H13           -2.1878     4.0211     0.0432 H       
  14 H14           -2.1644     1.5646     0.0208 H       
  15 H15            3.5610     2.9280    -0.9058 H       
  16 H16            3.5773     2.9197     0.8741 H       
  17 H17            4.4334     1.6475    -0.0298 H       
@<TRIPOS>BOND
   1    1    2 1
   2    1    8 3
   3    2    3 ar
   4    2    7 ar
   5    3    4 ar
   6    3    9 1
   7    4    5 ar
   8    4   12 1
   9    5    6 ar
  10    5   11 1
  11    6    7 ar
  12    6   13 1
  13    7   14 1
  14    9   10 1
  15   10   15 1
  16   10   16 1
  17   10   17 1

#	End of record

