#	Name: ASD01914175
#	Creating user name:	WinNT
#	Creation time:	15. 06. 2019 20:03

#	Modifying user name:	WinNT
#	Modification time:	15. 06. 2019 20:03

#	Program:	/corina/corina34_cracker 3.40 0067  02.08.2006

@<TRIPOS>MOLECULE
ASD01914175
  47   50    0    0    0
SMALL
NO_CHARGES


@<TRIPOS>ATOM
   1 C1             0.6246     0.8191     0.2114 C.2     
   2 N2             0.4959    -0.4952     0.1352 N.2     
   3 C3            -0.8246    -0.7291     0.1600 C.2     
   4 N4            -1.4274     0.4201     0.2478 N.2     
   5 O5            -0.6182     1.3229     0.2848 O.3     
   6 C6            -1.4899    -2.0798     0.0969 C.3     
   7 C7            -2.3253    -2.2972     1.3607 C.3     
   8 C8            -2.9750    -3.6820     1.3127 C.3     
   9 C9            -3.9052    -3.7635     0.0983 C.3     
  10 N10           -3.1412    -3.4134    -1.1069 N.am    
  11 C11           -2.4032    -2.1431    -1.1313 C.3     
  12 C12           -3.1177    -4.2417    -2.1698 C.2     
  13 C13           -2.4541    -3.8199    -3.4204 C.ar    
  14 O14           -3.6427    -5.3359    -2.0994 O.2     
  15 C15           -5.0650    -2.7811     0.2737 C.3     
  16 C16            1.8853     1.5811     0.2205 C.2     
  17 N17            3.0961     1.0693     0.1530 N.2     
  18 C18            3.9926     2.0561     0.1860 C.2     
  19 C19            3.3301     3.2321     0.2773 C.2     
  20 N20            1.9981     2.9409     0.2945 N.pl3   
  21 C21            5.4893     1.8895     0.1309 C.3     
  22 C22           -1.6639    -4.7238    -4.1337 C.ar    
  23 C23           -1.0474    -4.3251    -5.3003 C.ar    
  24 C24           -1.2106    -3.0293    -5.7658 C.ar    
  25 C25           -1.9938    -2.1277    -5.0613 C.ar    
  26 C26           -2.6195    -2.5175    -3.8967 C.ar    
  27 F27           -0.6041    -2.6437    -6.9098 F       
  28 H28           -0.7291    -2.8571     0.0256 H       
  29 H29           -1.6818    -2.2282     2.2377 H       
  30 H30           -3.1012    -1.5339     1.4188 H       
  31 H31           -2.2006    -4.4446     1.2296 H       
  32 H32           -3.5509    -3.8454     2.2236 H       
  33 H33           -4.2937    -4.7774     0.0029 H       
  34 H34           -3.1070    -1.3111    -1.1066 H       
  35 H35           -1.8007    -2.0879    -2.0379 H       
  36 H36           -4.6727    -1.7680     0.3623 H       
  37 H37           -5.7255    -2.8406    -0.5913 H       
  38 H38           -5.6229    -3.0349     1.1750 H       
  39 H39            3.7726     4.2162     0.3237 H       
  40 H40            1.2690     3.5779     0.3535 H       
  41 H41            5.8194     1.9119    -0.9077 H       
  42 H42            5.9657     2.7008     0.6812 H       
  43 H43            5.7654     0.9351     0.5793 H       
  44 H44           -1.5358    -5.7332    -3.7717 H       
  45 H45           -0.4357    -5.0232    -5.8525 H       
  46 H46           -2.1174    -1.1195    -5.4282 H       
  47 H47           -3.2295    -1.8146    -3.3488 H       
@<TRIPOS>BOND
   1    1    2 2
   2    1   16 1
   3    1    5 1
   4    2    3 1
   5    3    4 2
   6    3    6 1
   7    4    5 1
   8    6    7 1
   9    6   11 1
  10    6   28 1
  11    7    8 1
  12    7   29 1
  13    7   30 1
  14    8    9 1
  15    8   31 1
  16    8   32 1
  17    9   10 1
  18    9   15 1
  19    9   33 1
  20   10   11 1
  21   10   12 am
  22   11   34 1
  23   11   35 1
  24   12   13 1
  25   12   14 2
  26   13   22 ar
  27   13   26 ar
  28   15   36 1
  29   15   37 1
  30   15   38 1
  31   16   17 2
  32   16   20 1
  33   17   18 1
  34   18   19 2
  35   18   21 1
  36   19   20 1
  37   19   39 1
  38   20   40 1
  39   21   41 1
  40   21   42 1
  41   21   43 1
  42   22   23 ar
  43   22   44 1
  44   23   24 ar
  45   23   45 1
  46   24   25 ar
  47   24   27 1
  48   25   26 ar
  49   25   46 1
  50   26   47 1

#	End of record

