#	Name: ASD05730140
#	Creating user name:	WinNT
#	Creation time:	15. 06. 2019 21:02

#	Modifying user name:	WinNT
#	Modification time:	15. 06. 2019 21:02

#	Program:	/corina/corina34_cracker 3.40 0067  02.08.2006

@<TRIPOS>MOLECULE
ASD05730140
  81   87    0    0    0
SMALL
NO_CHARGES


@<TRIPOS>ATOM
   1 O1             0.2949     1.2230     1.6946 O.3     
   2 C2             0.2572    -0.0989     1.3778 C.ar    
   3 C3            -0.7910    -0.6005     0.6202 C.ar    
   4 C4            -0.8301    -1.9427     0.2980 C.ar    
   5 C5             0.1803    -2.7904     0.7327 C.ar    
   6 C6             1.2293    -2.2875     1.4911 C.ar    
   7 C7             1.2698    -0.9439     1.8076 C.ar    
   8 N8             0.1412    -4.1516     0.4068 N.pl3   
   9 C9             1.3081    -4.8201     0.0915 C.ar    
  10 N10            1.2606    -6.1292    -0.1032 N.ar    
  11 C11            2.3617    -6.8063    -0.4084 C.ar    
  12 C12            3.5808    -6.1033    -0.5207 C.ar    
  13 C13            3.5785    -4.7169    -0.3049 C.ar    
  14 N14            2.4360    -4.1254    -0.0107 N.ar    
  15 N15            2.3220    -8.1643    -0.6117 N.am    
  16 C16            3.4423    -8.8454    -0.9206 C.2     
  17 C17            4.7225    -8.1462    -1.0441 C.2     
  18 C18            4.7717    -6.7922    -0.8446 C.2     
  19 C19            1.1050    -8.8474    -0.4962 C.ar    
  20 O20            3.3899   -10.0495    -1.0977 O.2     
  21 C21            5.9542    -8.8968    -1.3830 C.ar    
  22 C22           -0.7183     2.0554     1.1268 C.3     
  23 C23            0.1133    -8.6685    -1.4517 C.ar    
  24 C24           -1.9734     2.0011     2.0008 C.3     
  25 C25            6.4956    -8.8112    -2.6651 C.ar    
  26 C26            6.5799    -9.6873    -0.4192 C.ar    
  27 C27            7.7268   -10.3835    -0.7406 C.ar    
  28 C28            8.2567   -10.2984    -2.0160 C.ar    
  29 C29            7.6433    -9.5123    -2.9747 C.ar    
  30 N30           -3.0076     2.8727     1.4291 N.3     
  31 C31           -2.5634     4.2720     1.3949 C.3     
  32 C32           -1.3260     4.3941     0.5028 C.3     
  33 C33           -0.2135     3.4993     1.0562 C.3     
  34 C34            0.8896    -9.7094     0.5709 C.ar    
  35 C35           -0.3116   -10.3820     0.6818 C.ar    
  36 C36           -1.2992   -10.1977    -0.2685 C.ar    
  37 C37           -1.0857    -9.3440    -1.3352 C.ar    
  38 S38            5.7157    -7.8104    -3.8877 S.o2    
  39 C39            4.1096    -8.6061    -4.1669 C.3     
  40 C40            3.3776    -7.8958    -5.3097 C.3     
  41 C41            2.0595    -8.6222    -5.5904 C.3     
  42 O42            2.3286    -9.9893    -5.9075 O.3     
  43 C43            2.9698   -10.7165    -4.8575 C.3     
  44 C44            4.3244   -10.0743    -4.5474 C.3     
  45 O45            5.5443    -6.5509    -3.2524 O.2     
  46 O46            6.5453    -7.9463    -5.0333 O.2     
  47 H47           -1.5769     0.0588     0.2826 H       
  48 H48           -1.6464    -2.3332    -0.2915 H       
  49 H49            2.0153    -2.9462     1.8297 H       
  50 H50            2.0857    -0.5526     2.3970 H       
  51 H51           -0.7054    -4.6252     0.4026 H       
  52 H52            4.4917    -4.1454    -0.3816 H       
  53 H53            5.7069    -6.2591    -0.9317 H       
  54 H54           -0.9581     1.7037     0.1233 H       
  55 H55            0.2793    -8.0016    -2.2848 H       
  56 H56           -2.3435     0.9767     2.0415 H       
  57 H57           -1.7295     2.3392     3.0079 H       
  58 H58            6.1677    -9.7539     0.5768 H       
  59 H59            8.2123   -10.9959     0.0048 H       
  60 H60            9.1551   -10.8446    -2.2627 H       
  61 H61            8.0615    -9.4498    -3.9685 H       
  62 H62           -3.2791     2.5570     0.5100 H       
  63 H63           -3.3622     4.8970     0.9956 H       
  64 H64           -2.3168     4.5995     2.4049 H       
  65 H65           -1.5755     4.0798    -0.5106 H       
  66 H66           -0.9873     5.4301     0.4902 H       
  67 H67            0.0633     3.8376     2.0547 H       
  68 H68            0.6551     3.5498     0.3996 H       
  69 H69            1.6606    -9.8541     1.3132 H       
  70 H70           -0.4797   -11.0529     1.5113 H       
  71 H71           -2.2375   -10.7251    -0.1798 H       
  72 H72           -1.8589    -9.2021    -2.0757 H       
  73 H73            3.5107    -8.5475    -3.2581 H       
  74 H74            3.1715    -6.8642    -5.0247 H       
  75 H75            3.9992    -7.9101    -6.2050 H       
  76 H76            1.4219    -8.5724    -4.7077 H       
  77 H77            1.5543    -8.1467    -6.4312 H       
  78 H78            2.3441   -10.6941    -3.9653 H       
  79 H79            3.1204   -11.7497    -5.1703 H       
  80 H80            4.9651   -10.1326    -5.4272 H       
  81 H81            4.7955   -10.6005    -3.7171 H       
@<TRIPOS>BOND
   1    1    2 1
   2    1   22 1
   3    2    3 ar
   4    2    7 ar
   5    3    4 ar
   6    3   47 1
   7    4    5 ar
   8    4   48 1
   9    5    6 ar
  10    5    8 1
  11    6    7 ar
  12    6   49 1
  13    7   50 1
  14    8    9 1
  15    8   51 1
  16    9   10 ar
  17    9   14 ar
  18   10   11 ar
  19   11   12 ar
  20   11   15 1
  21   12   13 ar
  22   12   18 1
  23   13   14 ar
  24   13   52 1
  25   15   16 am
  26   15   19 1
  27   16   17 1
  28   16   20 2
  29   17   18 2
  30   17   21 1
  31   18   53 1
  32   19   34 ar
  33   19   23 ar
  34   21   25 ar
  35   21   26 ar
  36   22   24 1
  37   22   33 1
  38   22   54 1
  39   23   37 ar
  40   23   55 1
  41   24   30 1
  42   24   56 1
  43   24   57 1
  44   25   38 1
  45   25   29 ar
  46   26   27 ar
  47   26   58 1
  48   27   28 ar
  49   27   59 1
  50   28   29 ar
  51   28   60 1
  52   29   61 1
  53   30   31 1
  54   30   62 1
  55   31   32 1
  56   31   63 1
  57   31   64 1
  58   32   33 1
  59   32   65 1
  60   32   66 1
  61   33   67 1
  62   33   68 1
  63   34   35 ar
  64   34   69 1
  65   35   36 ar
  66   35   70 1
  67   36   37 ar
  68   36   71 1
  69   37   72 1
  70   38   39 1
  71   38   45 2
  72   38   46 2
  73   39   40 1
  74   39   44 1
  75   39   73 1
  76   40   41 1
  77   40   74 1
  78   40   75 1
  79   41   42 1
  80   41   76 1
  81   41   77 1
  82   42   43 1
  83   43   44 1
  84   43   78 1
  85   43   79 1
  86   44   80 1
  87   44   81 1

#	End of record

