#	Name: ASD01915928
#	Creating user name:	WinNT
#	Creation time:	15. 06. 2019 20:06

#	Modifying user name:	WinNT
#	Modification time:	15. 06. 2019 20:06

#	Program:	/corina/corina34_cracker 3.40 0067  02.08.2006

@<TRIPOS>MOLECULE
ASD01915928
  40   43    0    0    0
SMALL
NO_CHARGES


@<TRIPOS>ATOM
   1 C1            -0.0165     1.3676     0.0096 C.2     
   2 C2             0.0021    -0.0041     0.0020 C.2     
   3 C3            -1.3057    -0.7789    -0.0020 C.3     
   4 C4            -2.3695     0.0449     0.7208 C.3     
   5 N5            -2.4035     1.4320     0.2717 N.am    
   6 C6            -1.2693     2.1314     0.0352 C.2     
   7 O7            -1.2874     3.3346    -0.1466 O.2     
   8 S8             1.6349     1.9479    -0.0031 S.3     
   9 C9             2.2074     0.3355    -0.0093 C.2     
  10 N10            1.2152    -0.4964    -0.0049 N.2     
  11 O11            4.1124    -0.1831    -1.3697 O.3     
  12 C12            5.4111    -0.5368    -1.5567 C.ar    
  13 C13            5.9155    -0.6739    -2.8417 C.ar    
  14 C14            6.2356    -0.7557    -0.4629 C.ar    
  15 C15            7.5573    -1.1157    -0.6561 C.ar    
  16 C16            8.0561    -1.2568    -1.9407 C.ar    
  17 C17            7.2362    -1.0336    -3.0307 C.ar    
  18 C18            3.6614    -0.0605    -0.0193 C.3     
  19 C19           -3.6426     2.0566     0.0797 C.ar    
  20 F20            8.3618    -1.3293     0.4080 F       
  21 C21           -4.2477     2.7367     1.1269 C.ar    
  22 C22           -5.4698     3.3526     0.9356 C.ar    
  23 C23           -6.0918     3.2919    -0.2997 C.ar    
  24 C24           -5.4912     2.6137    -1.3474 C.ar    
  25 C25           -4.2656     2.0010    -1.1627 C.ar    
  26 F26           -3.6794     1.3393    -2.1843 F       
  27 F27           -7.2868     3.8947    -0.4835 F       
  28 H28           -1.6199    -0.9598    -1.0299 H       
  29 H29           -1.1683    -1.7300     0.5125 H       
  30 H30           -3.3456    -0.4069     0.5440 H       
  31 H31           -2.1631     0.0259     1.7910 H       
  32 H32            5.2759    -0.4998    -3.6943 H       
  33 H33            5.8463    -0.6449     0.5384 H       
  34 H34            9.0883    -1.5372    -2.0907 H       
  35 H35            7.6271    -1.1445    -4.0313 H       
  36 H36            4.2491     0.7017     0.4924 H       
  37 H37            3.7813    -1.0157     0.4919 H       
  38 H38           -3.7640     2.7842     2.0914 H       
  39 H39           -5.9406     3.8818     1.7509 H       
  40 H40           -5.9785     2.5669    -2.3101 H       
@<TRIPOS>BOND
   1    1    2 2
   2    1    8 1
   3    1    6 1
   4    2    3 1
   5    2   10 1
   6    3    4 1
   7    3   28 1
   8    3   29 1
   9    4    5 1
  10    4   30 1
  11    4   31 1
  12    5    6 am
  13    5   19 1
  14    6    7 2
  15    8    9 1
  16    9   10 2
  17    9   18 1
  18   11   12 1
  19   11   18 1
  20   12   13 ar
  21   12   14 ar
  22   13   17 ar
  23   13   32 1
  24   14   15 ar
  25   14   33 1
  26   15   16 ar
  27   15   20 1
  28   16   17 ar
  29   16   34 1
  30   17   35 1
  31   18   36 1
  32   18   37 1
  33   19   21 ar
  34   19   25 ar
  35   21   22 ar
  36   21   38 1
  37   22   23 ar
  38   22   39 1
  39   23   24 ar
  40   23   27 1
  41   24   25 ar
  42   24   40 1
  43   25   26 1

#	End of record

