#	Name: ASD01028121
#	Creating user name:	WinNT
#	Creation time:	15. 06. 2019 18:56

#	Modifying user name:	WinNT
#	Modification time:	15. 06. 2019 18:56

#	Program:	/corina/corina34_cracker 3.40 0067  02.08.2006

@<TRIPOS>MOLECULE
ASD01028121
  56   59    0    0    0
SMALL
NO_CHARGES


@<TRIPOS>ATOM
   1 N1            -1.0735     3.4117     0.8929 N.pl3   
   2 C2            -0.7186     2.2410     1.5742 C.ar    
   3 C3            -1.6687     1.2553     1.8039 C.ar    
   4 C4            -3.0831     1.4454     1.3197 C.3     
   5 C5             0.5883     2.0615     2.0168 C.ar    
   6 C6             0.9350     0.8969     2.6926 C.ar    
   7 C7            -0.0228    -0.0798     2.9223 C.ar    
   8 C8            -1.3185     0.0995     2.4759 C.ar    
   9 O9            -3.2731     6.9792    -1.9586 O.3     
  10 C10           -2.5084     6.9956    -0.8343 C.ar    
  11 C11           -2.0623     5.8188    -0.3039 C.ar    
  12 C12           -1.2747     5.8344     0.8539 C.ar    
  13 C13           -0.7868     4.6443     1.4435 C.ar    
  14 N14           -0.0464     4.7449     2.5401 N.ar    
  15 O15            1.6949     2.8561     1.9184 O.3     
  16 C16            2.6211     2.3471     2.8963 C.3     
  17 O17            2.2592     0.9588     3.0187 O.3     
  18 C18           -2.1818     8.2208    -0.2357 C.ar    
  19 C19           -1.4089     8.2633     0.9032 C.ar    
  20 C20           -0.9454     7.0683     1.4677 C.ar    
  21 N21           -0.1891     7.0555     2.5762 N.ar    
  22 C22            0.2357     5.9203     3.0785 C.ar    
  23 O23           -2.6328     9.3784    -0.7852 O.3     
  24 N24           -3.1565     1.1311    -0.1134 N.3     
  25 C25           -2.8934    -0.2940    -0.3539 C.3     
  26 C26           -4.4549     1.5286    -0.6737 C.3     
  27 C27           -4.5294     1.1017    -2.1411 C.3     
  28 C28           -5.5619     0.8606     0.1005 C.2     
  29 O29           -6.7723     1.4362     0.1729 O.3     
  30 O30           -5.3598    -0.1931     0.6562 O.2     
  31 C31           -7.7905     0.7364     0.9357 C.3     
  32 C32           -2.2665    10.5939    -0.1292 C.3     
  33 H33           -1.5174     3.3564     0.0322 H       
  34 H34           -3.7485     0.7817     1.8718 H       
  35 H35           -3.3863     2.4800     1.4807 H       
  36 H36            0.2458    -0.9846     3.4473 H       
  37 H37           -2.0609    -0.6636     2.6575 H       
  38 H38           -4.2231     6.9220    -1.7873 H       
  39 H39           -2.3160     4.8806    -0.7749 H       
  40 H40            3.6467     2.4457     2.5405 H       
  41 H41            2.4938     2.8616     3.8488 H       
  42 H42           -1.1613     9.2114     1.3573 H       
  43 H43            0.8425     5.9463     3.9715 H       
  44 H44           -3.5513    -0.8958     0.2731 H       
  45 H45           -3.0789    -0.5258    -1.4026 H       
  46 H46           -1.8548    -0.5179    -0.1105 H       
  47 H47           -4.5647     2.6108    -0.6042 H       
  48 H48           -4.4196     0.0194    -2.2106 H       
  49 H49           -5.4928     1.3966    -2.5569 H       
  50 H50           -3.7287     1.5848    -2.7011 H       
  51 H51           -7.9598    -0.2477     0.4986 H       
  52 H52           -7.4579     0.6232     1.9675 H       
  53 H53           -8.7182     1.3082     0.9136 H       
  54 H54           -2.6492    10.5856     0.8914 H       
  55 H55           -1.1803    10.6829    -0.1092 H       
  56 H56           -2.6905    11.4404    -0.6693 H       
@<TRIPOS>BOND
   1    1    2 1
   2    1   13 1
   3    1   33 1
   4    2    3 ar
   5    2    5 ar
   6    3    4 1
   7    3    8 ar
   8    4   24 1
   9    4   34 1
  10    4   35 1
  11    5    6 ar
  12    5   15 1
  13    6    7 ar
  14    6   17 1
  15    7    8 ar
  16    7   36 1
  17    8   37 1
  18    9   10 1
  19    9   38 1
  20   10   11 ar
  21   10   18 ar
  22   11   12 ar
  23   11   39 1
  24   12   13 ar
  25   12   20 ar
  26   13   14 ar
  27   14   22 ar
  28   15   16 1
  29   16   17 1
  30   16   40 1
  31   16   41 1
  32   18   19 ar
  33   18   23 1
  34   19   20 ar
  35   19   42 1
  36   20   21 ar
  37   21   22 ar
  38   22   43 1
  39   23   32 1
  40   24   25 1
  41   24   26 1
  42   25   44 1
  43   25   45 1
  44   25   46 1
  45   26   27 1
  46   26   28 1
  47   26   47 1
  48   27   48 1
  49   27   49 1
  50   27   50 1
  51   28   29 1
  52   28   30 2
  53   29   31 1
  54   31   51 1
  55   31   52 1
  56   31   53 1
  57   32   54 1
  58   32   55 1
  59   32   56 1

#	End of record

