#	Name: ASD05740250
#	Creating user name:	WinNT
#	Creation time:	15. 06. 2019 21:03

#	Modifying user name:	WinNT
#	Modification time:	15. 06. 2019 21:03

#	Program:	/corina/corina34_cracker 3.40 0067  02.08.2006

@<TRIPOS>MOLECULE
ASD05740250
  61   64    0    0    0
SMALL
NO_CHARGES


@<TRIPOS>ATOM
   1 C1            -1.9958    -2.4006    -1.4374 C.ar    
   2 C2            -0.9164    -1.7559    -0.8388 C.ar    
   3 N3            -1.8446    -3.5812    -2.0201 N.ar    
   4 C4            -0.6776    -4.1910    -2.0583 C.ar    
   5 C5             0.4480    -3.6083    -1.4805 C.ar    
   6 C6             0.3242    -2.3607    -0.8566 C.ar    
   7 C7             1.7582    -4.2990    -1.5254 C.ar    
   8 C8             1.9070    -5.4937    -2.2368 C.ar    
   9 N9             2.8133    -3.7889    -0.8937 N.ar    
  10 C10            3.9847    -4.4047    -0.9327 C.ar    
  11 N11            4.1526    -5.5403    -1.5948 N.ar    
  12 C12            3.1486    -6.1022    -2.2502 C.ar    
  13 N13            5.0624    -3.8474    -0.2648 N.pl3   
  14 N14           -3.2474    -1.8016    -1.4185 N.pl3   
  15 C15            6.2777    -4.5408    -0.1948 C.ar    
  16 C16            7.4779    -3.8424    -0.2169 C.ar    
  17 C17            6.2821    -5.9258    -0.0975 C.ar    
  18 C18            7.4800    -6.6093    -0.0280 C.ar    
  19 C19            8.6801    -5.9114    -0.0554 C.ar    
  20 C20            8.6755    -4.5256    -0.1479 C.ar    
  21 N21            9.8942    -6.6040     0.0155 N.3     
  22 C22           11.9506    -7.0216     1.2766 C.3     
  23 N23           12.7309    -6.8442     0.0440 N.3     
  24 C24           11.9545    -7.2613    -1.1320 C.3     
  25 C25           10.6745    -6.4266    -1.2171 C.3     
  26 C26           14.0052    -7.5712     0.1184 C.3     
  27 C27           10.6706    -6.1869     1.1914 C.3     
  28 C28           -3.4265    -0.4994    -0.7717 C.3     
  29 C29           -4.8893    -0.0673    -0.8916 C.3     
  30 N30           -5.0689     1.2384    -0.2430 N.3     
  31 C31            7.4848    -8.1126     0.0781 C.3     
  32 H32           -1.0482    -0.7937    -0.3665 H       
  33 H33           -0.5928    -5.1528    -2.5422 H       
  34 H34            1.1788    -1.8835    -0.4001 H       
  35 H35            1.0716    -5.9312    -2.7632 H       
  36 H36            3.2969    -7.0280    -2.7861 H       
  37 H37            4.9757    -2.9771     0.1546 H       
  38 H38           -4.0036    -2.2451    -1.8335 H       
  39 H39            7.4743    -2.7647    -0.2884 H       
  40 H40            5.3486    -6.4686    -0.0757 H       
  41 H41            9.6089    -3.9827    -0.1696 H       
  42 H42           11.6915    -8.0738     1.3947 H       
  43 H43           12.5420    -6.6942     2.1317 H       
  44 H44           12.5488    -7.1087    -2.0329 H       
  45 H45           11.6954    -8.3162    -1.0412 H       
  46 H46           10.0830    -6.7540    -2.0722 H       
  47 H47           10.9336    -5.3745    -1.3352 H       
  48 H48           13.8094    -8.6343     0.2581 H       
  49 H49           14.5626    -7.4229    -0.8065 H       
  50 H50           14.5891    -7.1958     0.9588 H       
  51 H51           10.9296    -5.1321     1.1007 H       
  52 H52           10.0763    -6.3396     2.0924 H       
  53 H53           -3.1555    -0.5763     0.2812 H       
  54 H54           -2.7886     0.2387    -1.2581 H       
  55 H55           -5.1603     0.0096    -1.9445 H       
  56 H56           -5.5272    -0.8054    -0.4052 H       
  57 H57           -4.4413     1.9254    -0.6333 H       
  58 H58           -6.0277     1.5460    -0.3087 H       
  59 H59            7.5041    -8.5473    -0.9212 H       
  60 H60            8.3667    -8.4349     0.6317 H       
  61 H61            6.5870    -8.4428     0.6007 H       
@<TRIPOS>BOND
   1    1    2 ar
   2    1    3 ar
   3    1   14 1
   4    2    6 ar
   5    2   32 1
   6    3    4 ar
   7    4    5 ar
   8    4   33 1
   9    5    6 ar
  10    5    7 1
  11    6   34 1
  12    7    8 ar
  13    7    9 ar
  14    8   12 ar
  15    8   35 1
  16    9   10 ar
  17   10   11 ar
  18   10   13 1
  19   11   12 ar
  20   12   36 1
  21   13   15 1
  22   13   37 1
  23   14   28 1
  24   14   38 1
  25   15   16 ar
  26   15   17 ar
  27   16   20 ar
  28   16   39 1
  29   17   18 ar
  30   17   40 1
  31   18   19 ar
  32   18   31 1
  33   19   20 ar
  34   19   21 1
  35   20   41 1
  36   21   27 1
  37   21   25 1
  38   22   23 1
  39   22   27 1
  40   22   42 1
  41   22   43 1
  42   23   24 1
  43   23   26 1
  44   24   25 1
  45   24   44 1
  46   24   45 1
  47   25   46 1
  48   25   47 1
  49   26   48 1
  50   26   49 1
  51   26   50 1
  52   27   51 1
  53   27   52 1
  54   28   29 1
  55   28   53 1
  56   28   54 1
  57   29   30 1
  58   29   55 1
  59   29   56 1
  60   30   57 1
  61   30   58 1
  62   31   59 1
  63   31   60 1
  64   31   61 1

#	End of record

