#	Name: ASD01940095
#	Creating user name:	WinNT
#	Creation time:	15. 06. 2019 20:11

#	Modifying user name:	WinNT
#	Modification time:	15. 06. 2019 20:11

#	Program:	/corina/corina34_cracker 3.40 0067  02.08.2006

@<TRIPOS>MOLECULE
ASD01940095
  58   62    0    0    0
SMALL
NO_CHARGES


@<TRIPOS>ATOM
   1 C1             1.9774     1.4571     6.0106 C.ar    
   2 C2             1.3085     0.3408     5.5197 C.ar    
   3 C3             2.0249    -0.6845     4.9171 C.ar    
   4 C4             3.3988    -0.5937     4.8066 C.ar    
   5 C5             4.0624     0.5172     5.2959 C.ar    
   6 C6             3.3524     1.5440     5.8920 C.ar    
   7 I7             6.1463     0.6488     5.1258 I       
   8 F8             1.2843     2.4574     6.5973 F       
   9 N9            -0.0833     0.2511     5.6334 N.pl3   
  10 C10           -0.7389    -0.8859     5.2054 C.2     
  11 C11           -0.4867    -2.1819     5.8292 C.2     
  12 C12           -1.1703    -3.3077     5.3679 C.2     
  13 N13           -2.0591    -3.1889     4.3486 N.am    
  14 C14           -2.3038    -2.0050     3.7621 C.2     
  15 C15           -1.6635    -0.8337     4.1721 C.2     
  16 O16           -3.1120    -1.9510     2.8490 O.2     
  17 C17           -2.7683    -4.3806     3.8763 C.3     
  18 C18            0.4667    -2.3376     6.9293 C.2     
  19 N19            0.6420    -3.5725     7.4508 N.am    
  20 C20           -0.0407    -4.6247     6.9704 C.2     
  21 N21           -0.9232    -4.5185     5.9628 N.am    
  22 O22            1.0843    -1.3824     7.3618 O.2     
  23 C23            1.5881    -3.7653     8.5527 C.3     
  24 C24            2.8037    -4.6572     8.2921 C.3     
  25 C25            2.9777    -3.1415     8.4080 C.3     
  26 O26            0.1473    -5.7178     7.4679 O.2     
  27 C27           -1.5998    -5.6602     5.5134 C.ar    
  28 C28           -1.0066    -6.4957     4.5787 C.ar    
  29 C29           -1.6799    -7.6261     4.1363 C.ar    
  30 C30           -2.9453    -7.9169     4.6309 C.ar    
  31 C31           -3.5333    -7.0820     5.5617 C.ar    
  32 C32           -2.8631    -5.9595     6.0080 C.ar    
  33 N33           -1.0863    -8.4698     3.1948 N.am    
  34 S34           -1.6014    -8.4468     1.6211 S.o2    
  35 O35           -3.0131    -8.5802     1.7125 O.2     
  36 C36           -1.1556    -6.7933     1.0230 C.3     
  37 O37           -0.8118    -9.4388     0.9794 O.2     
  38 H38            1.5083    -1.5528     4.5354 H       
  39 H39            3.9559    -1.3913     4.3379 H       
  40 H40            3.8732     2.4101     6.2726 H       
  41 H41           -0.5874     0.9878     6.0130 H       
  42 H42           -1.8797     0.1043     3.6825 H       
  43 H43           -3.4122    -4.7588     4.6703 H       
  44 H44           -3.3751    -4.1222     3.0085 H       
  45 H45           -2.0452    -5.1475     3.5987 H       
  46 H46            1.1492    -3.7915     9.5500 H       
  47 H47            3.1647    -5.2698     9.1182 H       
  48 H48            2.8994    -5.1005     7.3010 H       
  49 H49            3.1879    -2.5877     7.4930 H       
  50 H50            3.4532    -2.7570     9.3103 H       
  51 H51           -0.0231    -6.2671     4.1956 H       
  52 H52           -3.4699    -8.7962     4.2873 H       
  53 H53           -4.5173    -7.3098     5.9442 H       
  54 H54           -3.3254    -5.3089     6.7355 H       
  55 H55           -0.3723    -9.0693     3.4627 H       
  56 H56           -0.0706    -6.6886     1.0192 H       
  57 H57           -1.5373    -6.6578     0.0111 H       
  58 H58           -1.5910    -6.0399     1.6795 H       
@<TRIPOS>BOND
   1    1    2 ar
   2    1    8 1
   3    1    6 ar
   4    2    3 ar
   5    2    9 1
   6    3    4 ar
   7    3   38 1
   8    4    5 ar
   9    4   39 1
  10    5    6 ar
  11    5    7 1
  12    6   40 1
  13    9   10 1
  14    9   41 1
  15   10   11 1
  16   10   15 2
  17   11   12 2
  18   11   18 1
  19   12   13 1
  20   12   21 1
  21   13   14 am
  22   13   17 1
  23   14   15 1
  24   14   16 2
  25   15   42 1
  26   17   43 1
  27   17   44 1
  28   17   45 1
  29   18   19 am
  30   18   22 2
  31   19   20 am
  32   19   23 1
  33   20   21 am
  34   20   26 2
  35   21   27 1
  36   23   24 1
  37   23   25 1
  38   23   46 1
  39   24   25 1
  40   24   47 1
  41   24   48 1
  42   25   49 1
  43   25   50 1
  44   27   28 ar
  45   27   32 ar
  46   28   29 ar
  47   28   51 1
  48   29   30 ar
  49   29   33 1
  50   30   31 ar
  51   30   52 1
  52   31   32 ar
  53   31   53 1
  54   32   54 1
  55   33   34 am
  56   33   55 1
  57   34   35 2
  58   34   36 1
  59   34   37 2
  60   36   56 1
  61   36   57 1
  62   36   58 1

#	End of record

