#	Name: ASD02030090
#	Creating user name:	WinNT
#	Creation time:	15. 06. 2019 20:14

#	Modifying user name:	WinNT
#	Modification time:	15. 06. 2019 20:14

#	Program:	/corina/corina34_cracker 3.40 0067  02.08.2006

@<TRIPOS>MOLECULE
ASD02030090
  63   66    0    0    0
SMALL
NO_CHARGES


@<TRIPOS>ATOM
   1 C1            -0.0777     1.2694    -0.0221 C.ar    
   2 C2            -0.0776    -0.1206    -0.0210 C.ar    
   3 C3            -1.2689    -0.8110    -0.0019 C.ar    
   4 C4            -2.4789    -0.1124     0.0168 C.ar    
   5 C5            -2.4747     1.2849     0.0161 C.ar    
   6 C6            -1.2791     1.9680     0.0023 C.ar    
   7 O7             1.0984     1.9462    -0.0413 O.3     
   8 C8            -3.7581    -0.8485     0.0368 C.2     
   9 N9            -4.9242    -0.1729     0.0548 N.am    
  10 O10           -3.7599    -2.0644     0.0369 O.2     
  11 C11           -6.1939    -0.9035     0.0746 C.3     
  12 C12           -6.5860    -1.2629    -1.3713 C.3     
  13 N13           -7.9850    -1.5967    -1.4844 N.3     
  14 C14           -8.7412    -0.4061    -1.9260 C.3     
  15 C15           -9.0853     0.4883    -0.8264 C.3     
  16 C16           -7.8235     1.0371    -0.1237 C.3     
  17 C17           -7.2608    -0.0336     0.7712 C.3     
  18 O18           -6.6630     0.5966     1.9348 O.3     
  19 C19           -7.4612     0.7925     3.0018 C.2     
  20 C20           -6.9205     1.4293     4.2231 C.ar    
  21 O21           -8.6246     0.4466     2.9615 O.2     
  22 C22           -7.7489     1.6314     5.3272 C.ar    
  23 C23           -7.2473     2.2266     6.4715 C.ar    
  24 C24           -5.9037     2.6269     6.5201 C.ar    
  25 C25           -5.0741     2.4219     5.4077 C.ar    
  26 C26           -5.5824     1.8208     4.2693 C.ar    
  27 C27           -5.3653     3.2617     7.7366 C.2     
  28 O28           -3.7740     2.8073     5.4496 O.3     
  29 O29           -8.0539     2.4231     7.5445 O.3     
  30 C30           -5.3337     4.7320     7.8489 C.ar    
  31 O31           -4.9470     2.5730     8.6477 O.2     
  32 C32           -5.7073     5.5284     6.7625 C.ar    
  33 C33           -4.9342     5.3394     9.0482 C.ar    
  34 C34           -4.9089     6.7229     9.1423 C.ar    
  35 C35           -5.2755     7.4972     8.0596 C.ar    
  36 C36           -5.6759     6.9010     6.8744 C.ar    
  37 O37           -4.5747     4.5774    10.1112 O.3     
  38 H38            0.8580    -0.6598    -0.0354 H       
  39 H39           -1.2680    -1.8910    -0.0018 H       
  40 H40           -3.4079     1.8285     0.0305 H       
  41 H41           -1.2750     3.0480     0.0017 H       
  42 H42            1.4252     2.1416    -0.9302 H       
  43 H43           -4.9228     0.7971     0.0546 H       
  44 H44           -6.0629    -1.8235     0.6443 H       
  45 H45           -6.3709    -0.4128    -2.0187 H       
  46 H46           -5.9906    -2.1153    -1.6987 H       
  47 H47           -8.1224    -2.3685    -2.1197 H       
  48 H48           -8.1398     0.1432    -2.6504 H       
  49 H49           -9.6598    -0.7341    -2.4125 H       
  50 H50           -9.6675     1.3235    -1.2158 H       
  51 H51           -9.6886    -0.0563    -0.1001 H       
  52 H52           -7.0809     1.3154    -0.8716 H       
  53 H53           -8.0882     1.9100     0.4730 H       
  54 H54           -8.0756    -0.6769     1.1035 H       
  55 H55           -8.7833     1.3232     5.2888 H       
  56 H56           -4.9443     1.6622     3.4125 H       
  57 H57           -3.1824     2.1531     5.8460 H       
  58 H58           -8.0628     1.6857     8.1701 H       
  59 H59           -6.0197     5.0682     5.8368 H       
  60 H60           -4.6023     7.1951    10.0639 H       
  61 H61           -5.2543     8.5741     8.1383 H       
  62 H62           -5.9608     7.5154     6.0331 H       
  63 H63           -3.6329     4.3599    10.1387 H       
@<TRIPOS>BOND
   1    1    2 ar
   2    1    7 1
   3    1    6 ar
   4    2    3 ar
   5    2   38 1
   6    3    4 ar
   7    3   39 1
   8    4    5 ar
   9    4    8 1
  10    5    6 ar
  11    5   40 1
  12    6   41 1
  13    7   42 1
  14    8    9 am
  15    8   10 2
  16    9   11 1
  17    9   43 1
  18   11   12 1
  19   11   17 1
  20   11   44 1
  21   12   13 1
  22   12   45 1
  23   12   46 1
  24   13   14 1
  25   13   47 1
  26   14   15 1
  27   14   48 1
  28   14   49 1
  29   15   16 1
  30   15   50 1
  31   15   51 1
  32   16   17 1
  33   16   52 1
  34   16   53 1
  35   17   18 1
  36   17   54 1
  37   18   19 1
  38   19   20 1
  39   19   21 2
  40   20   22 ar
  41   20   26 ar
  42   22   23 ar
  43   22   55 1
  44   23   24 ar
  45   23   29 1
  46   24   25 ar
  47   24   27 1
  48   25   26 ar
  49   25   28 1
  50   26   56 1
  51   27   30 1
  52   27   31 2
  53   28   57 1
  54   29   58 1
  55   30   32 ar
  56   30   33 ar
  57   32   36 ar
  58   32   59 1
  59   33   34 ar
  60   33   37 1
  61   34   35 ar
  62   34   60 1
  63   35   36 ar
  64   35   61 1
  65   36   62 1
  66   37   63 1

#	End of record

