#	Name: ASD04880151
#	Creating user name:	WinNT
#	Creation time:	15. 06. 2019 20:52

#	Modifying user name:	WinNT
#	Modification time:	15. 06. 2019 20:52

#	Program:	/corina/corina34_cracker 3.40 0067  02.08.2006

@<TRIPOS>MOLECULE
ASD04880151
  50   52    0    0    0
SMALL
NO_CHARGES


@<TRIPOS>ATOM
   1 C1            -0.0144     1.2118     0.0087 C.2     
   2 O2             0.0580    -0.0018    -0.0139 O.2     
   3 C3             1.2185     2.0263    -0.0193 C.ar    
   4 C4             2.4681     1.4102     0.0724 C.ar    
   5 C5             3.5286     3.5525    -0.0717 C.ar    
   6 C6             1.1390     3.4143    -0.1433 C.ar    
   7 C7             3.6148     2.1763     0.0457 C.ar    
   8 C8             2.2938     4.1688    -0.1688 C.ar    
   9 C9             4.9644     1.5132     0.1450 C.3     
  10 N10           -1.2192     1.8142     0.0538 N.am    
  11 N11           -1.4359     3.1833     0.1953 N.2     
  12 C12           -2.6795     3.5205     0.2117 C.2     
  13 C13           -3.5396     2.2853     0.0676 C.3     
  14 C14           -2.5204     1.1342    -0.0448 C.3     
  15 C15           -4.4285     2.1036     1.2995 C.3     
  16 C16           -4.3897     2.3683    -1.2018 C.3     
  17 C17           -3.1857     4.8981     0.3496 C.ar    
  18 C18           -2.2905     5.9641     0.4757 C.ar    
  19 C19           -2.7704     7.2535     0.6043 C.ar    
  20 C20           -4.1440     7.4889     0.6079 C.ar    
  21 C21           -5.0326     6.4314     0.4827 C.ar    
  22 C22           -4.5611     5.1421     0.3487 C.ar    
  23 O23           -4.6140     8.7580     0.7349 O.3     
  24 C24           -6.0329     8.9278     0.7309 C.3     
  25 O25           -1.9022     8.2930     0.7277 O.3     
  26 C26           -0.5082     7.9788     0.7165 C.3     
  27 H27            2.5367     0.3364     0.1644 H       
  28 H28            4.4296     4.1477    -0.0921 H       
  29 H29            0.1756     3.8966    -0.2195 H       
  30 H30            2.2336     5.2432    -0.2601 H       
  31 H31            5.3231     1.2678    -0.8546 H       
  32 H32            5.6680     2.1919     0.6271 H       
  33 H33            4.8782     0.6004     0.7344 H       
  34 H34           -2.6163     0.6268    -1.0048 H       
  35 H35           -2.6483     0.4296     0.7770 H       
  36 H36           -5.0932     2.9619     1.3977 H       
  37 H37           -5.0214     1.1957     1.1891 H       
  38 H38           -3.8042     2.0239     2.1895 H       
  39 H39           -3.7381     2.4745    -2.0691 H       
  40 H40           -4.9828     1.4593    -1.3020 H       
  41 H41           -5.0538     3.2303    -1.1385 H       
  42 H42           -1.2262     5.7804     0.4732 H       
  43 H43           -6.0963     6.6183     0.4864 H       
  44 H44           -5.2552     4.3210     0.2469 H       
  45 H45           -6.2726     9.9856     0.8391 H       
  46 H46           -6.4405     8.5572    -0.2097 H       
  47 H47           -6.4679     8.3700     1.5602 H       
  48 H48           -0.2805     7.3071     1.5443 H       
  49 H49           -0.2526     7.4939    -0.2257 H       
  50 H50            0.0717     8.8956     0.8224 H       
@<TRIPOS>BOND
   1    1    2 2
   2    1    3 1
   3    1   10 am
   4    3    4 ar
   5    3    6 ar
   6    4    7 ar
   7    4   27 1
   8    5    7 ar
   9    5    8 ar
  10    5   28 1
  11    6    8 ar
  12    6   29 1
  13    7    9 1
  14    8   30 1
  15    9   31 1
  16    9   32 1
  17    9   33 1
  18   10   11 1
  19   10   14 1
  20   11   12 2
  21   12   13 1
  22   12   17 1
  23   13   14 1
  24   13   15 1
  25   13   16 1
  26   14   34 1
  27   14   35 1
  28   15   36 1
  29   15   37 1
  30   15   38 1
  31   16   39 1
  32   16   40 1
  33   16   41 1
  34   17   18 ar
  35   17   22 ar
  36   18   19 ar
  37   18   42 1
  38   19   20 ar
  39   19   25 1
  40   20   21 ar
  41   20   23 1
  42   21   22 ar
  43   21   43 1
  44   22   44 1
  45   23   24 1
  46   24   45 1
  47   24   46 1
  48   24   47 1
  49   25   26 1
  50   26   48 1
  51   26   49 1
  52   26   50 1

#	End of record

