#	Name: ASD01890436
#	Creating user name:	WinNT
#	Creation time:	15. 06. 2019 19:51

#	Modifying user name:	WinNT
#	Modification time:	15. 06. 2019 19:51

#	Program:	/corina/corina34_cracker 3.40 0067  02.08.2006

@<TRIPOS>MOLECULE
ASD01890436
  60   61    0    0    0
SMALL
NO_CHARGES


@<TRIPOS>ATOM
   1 C1             0.0437     1.6083     0.2258 C.2     
   2 C2             0.0612     0.1083     0.0823 C.3     
   3 C3             1.4858    -0.3683    -0.0376 C.2     
   4 O4             0.9030     2.1638     0.8684 O.2     
   5 O5            -0.9234     2.3278    -0.3649 O.3     
   6 O6             1.9357    -1.1388     0.7771 O.2     
   7 O7             2.2550     0.0633    -1.0495 O.3     
   8 C8            -0.5881    -0.5293     1.3123 C.3     
   9 C9            -1.9851     0.0607     1.5151 C.3     
  10 C10           -2.5663    -0.4566     2.8057 C.2     
  11 C11           -3.9106    -0.0332     3.2292 C.ar    
  12 C12           -4.4535    -0.5111     4.4262 C.ar    
  13 C13           -5.7135    -0.1093     4.8163 C.ar    
  14 C14           -6.4406     0.7645     4.0268 C.ar    
  15 C15           -5.9104     1.2416     2.8407 C.ar    
  16 C16           -4.6495     0.8537     2.4396 C.ar    
  17 C17           -7.8170     1.1985     4.4608 C.3     
  18 F18           -7.7167     2.3549     5.2418 F       
  19 F19           -8.5995     1.4645     3.3320 F       
  20 F20           -8.4124     0.1791     5.2113 F       
  21 C21           -0.6966    -2.0185     1.1079 C.ar    
  22 C22           -0.0648    -2.8838     1.9813 C.ar    
  23 C23           -0.1643    -4.2498     1.7939 C.ar    
  24 C24           -0.8959    -4.7504     0.7332 C.ar    
  25 C25           -1.5284    -3.8850    -0.1398 C.ar    
  26 C26           -1.4325    -2.5192     0.0502 C.ar    
  27 O27           -1.9264    -1.2218     3.4951 O.2     
  28 C28           -0.8776     3.7678    -0.1840 C.3     
  29 O29            0.1766     4.3262    -1.0117 O.3     
  30 C30           -0.0632     4.4099    -2.3297 C.2     
  31 O31           -1.1191     4.0292    -2.7770 O.2     
  32 C32            0.9844     4.9788    -3.2516 C.3     
  33 C33            3.6169    -0.4373    -1.1022 C.3     
  34 O34            3.6093    -1.8128    -1.5673 O.3     
  35 C35            3.3908    -2.0122    -2.8766 C.2     
  36 O36            3.2118    -1.0686    -3.6098 O.2     
  37 C37            3.3687    -3.4129    -3.4321 C.3     
  38 H38           -0.4940    -0.1778    -0.8110 H       
  39 H39            0.0231    -0.3269     2.1918 H       
  40 H40           -1.9177     1.1478     1.5570 H       
  41 H41           -2.6272    -0.2318     0.6844 H       
  42 H42           -3.8875    -1.1933     5.0431 H       
  43 H43           -6.1343    -0.4778     5.7402 H       
  44 H44           -6.4842     1.9227     2.2297 H       
  45 H45           -4.2352     1.2305     1.5162 H       
  46 H46            0.5067    -2.4927     2.8100 H       
  47 H47            0.3298    -4.9259     2.4759 H       
  48 H48           -0.9731    -5.8176     0.5863 H       
  49 H49           -2.0997    -4.2761    -0.9687 H       
  50 H50           -1.9297    -1.8431    -0.6296 H       
  51 H51           -1.8349     4.2010    -0.4736 H       
  52 H52           -0.6772     3.9963     0.8628 H       
  53 H53            1.6315     4.1762    -3.6054 H       
  54 H54            0.4988     5.4560    -4.1029 H       
  55 H55            1.5805     5.7157    -2.7134 H       
  56 H56            4.2027     0.1748    -1.7879 H       
  57 H57            4.0592    -0.3928    -0.1070 H       
  58 H58            3.5479    -4.1258    -2.6273 H       
  59 H59            2.3957    -3.6100    -3.8822 H       
  60 H60            4.1466    -3.5160    -4.1887 H       
@<TRIPOS>BOND
   1    1    2 1
   2    1    4 2
   3    1    5 1
   4    2    3 1
   5    2    8 1
   6    2   38 1
   7    3    6 2
   8    3    7 1
   9    5   28 1
  10    7   33 1
  11    8    9 1
  12    8   21 1
  13    8   39 1
  14    9   10 1
  15    9   40 1
  16    9   41 1
  17   10   11 1
  18   10   27 2
  19   11   12 ar
  20   11   16 ar
  21   12   13 ar
  22   12   42 1
  23   13   14 ar
  24   13   43 1
  25   14   15 ar
  26   14   17 1
  27   15   16 ar
  28   15   44 1
  29   16   45 1
  30   17   18 1
  31   17   19 1
  32   17   20 1
  33   21   22 ar
  34   21   26 ar
  35   22   23 ar
  36   22   46 1
  37   23   24 ar
  38   23   47 1
  39   24   25 ar
  40   24   48 1
  41   25   26 ar
  42   25   49 1
  43   26   50 1
  44   28   29 1
  45   28   51 1
  46   28   52 1
  47   29   30 1
  48   30   31 2
  49   30   32 1
  50   32   53 1
  51   32   54 1
  52   32   55 1
  53   33   34 1
  54   33   56 1
  55   33   57 1
  56   34   35 1
  57   35   36 2
  58   35   37 1
  59   37   58 1
  60   37   59 1
  61   37   60 1

#	End of record

