#	Name: ASD01885886
#	Creating user name:	WinNT
#	Creation time:	15. 06. 2019 19:50

#	Modifying user name:	WinNT
#	Modification time:	15. 06. 2019 19:50

#	Program:	/corina/corina34_cracker 3.40 0067  02.08.2006

@<TRIPOS>MOLECULE
ASD01885886
  55   58    0    0    0
SMALL
NO_CHARGES


@<TRIPOS>ATOM
   1 C1            -0.0170     1.4036     0.0098 C.ar    
   2 C2             1.2136     2.1078     0.0018 C.ar    
   3 C3             1.1957     3.5260     0.0097 C.ar    
   4 C4            -0.0399     4.1602     0.0249 C.ar    
   5 C5            -1.2088     3.3917     0.0319 C.ar    
   6 N6            -1.1706     2.0723     0.0299 N.ar    
   7 C7             0.0021    -0.0041     0.0020 C.ar    
   8 C8             1.1926    -0.6630    -0.0129 C.ar    
   9 C9             2.3991     0.0334    -0.0208 C.ar    
  10 C10            2.4198     1.3962    -0.0132 C.ar    
  11 C11            1.2060    -2.1699    -0.0206 C.3     
  12 C12            2.4534     4.3052     0.0024 C.ar    
  13 C13            1.9196    -2.6671    -1.2794 C.3     
  14 C14            1.8260    -4.1696    -1.3496 C.ar    
  15 C15            2.7896     5.1015     1.0979 C.ar    
  16 C16            3.9619     5.8261     1.0878 C.ar    
  17 C17            4.8097     5.7658    -0.0111 C.ar    
  18 C18            4.4805     4.9757    -1.1044 C.ar    
  19 C19            3.3114     4.2414    -1.0998 C.ar    
  20 C20            0.7653    -4.7852    -1.9951 C.ar    
  21 N21            0.7167    -6.1070    -2.0365 N.ar    
  22 C22            1.6600    -6.8354    -1.4739 C.ar    
  23 N23            2.6831    -6.2847    -0.8516 N.ar    
  24 C24            2.8016    -4.9689    -0.7749 C.ar    
  25 C25           -2.5239     4.0765     0.0481 C.2     
  26 N26           -3.6607     3.3525     0.0551 N.am    
  27 O27           -2.5767     5.2904     0.0552 O.2     
  28 C28            1.5662    -8.3378    -1.5435 C.3     
  29 C29            1.9440    -2.6797     1.2189 C.3     
  30 F30            2.9911     3.4721    -2.1633 F       
  31 O31            5.9636     6.4821    -0.0163 O.3     
  32 C32            6.7889     6.3743    -1.1778 C.3     
  33 H33           -0.0978     5.2386     0.0317 H       
  34 H34           -0.9245    -0.5588     0.0083 H       
  35 H35            3.3302    -0.5137    -0.0327 H       
  36 H36            3.3616     1.9247    -0.0198 H       
  37 H37            0.1817    -2.5424    -0.0125 H       
  38 H38            1.4475    -2.2322    -2.1604 H       
  39 H39            2.9676    -2.3695    -1.2445 H       
  40 H40            2.1315     5.1502     1.9529 H       
  41 H41            4.2219     6.4423     1.9358 H       
  42 H42            5.1418     4.9320    -1.9571 H       
  43 H43           -0.0112    -4.1942    -2.4579 H       
  44 H44            3.6424    -4.5240    -0.2635 H       
  45 H45           -3.6186     2.3835     0.0494 H       
  46 H46           -4.5210     3.8005     0.0657 H       
  47 H47            2.0743    -8.6924    -2.4403 H       
  48 H48            2.0384    -8.7726    -0.6625 H       
  49 H49            0.5182    -8.6352    -1.5781 H       
  50 H50            2.9683    -2.3071     1.2108 H       
  51 H51            1.4357    -2.3254     2.1157 H       
  52 H52            1.9537    -3.7696     1.2133 H       
  53 H53            7.0886     5.3354    -1.3155 H       
  54 H54            6.2316     6.7106    -2.0521 H       
  55 H55            7.6763     6.9948    -1.0519 H       
@<TRIPOS>BOND
   1    1    7 ar
   2    1    2 ar
   3    1    6 ar
   4    2    3 ar
   5    2   10 ar
   6    3    4 ar
   7    3   12 1
   8    4    5 ar
   9    4   33 1
  10    5    6 ar
  11    5   25 1
  12    7    8 ar
  13    7   34 1
  14    8   11 1
  15    8    9 ar
  16    9   10 ar
  17    9   35 1
  18   10   36 1
  19   11   13 1
  20   11   29 1
  21   11   37 1
  22   12   15 ar
  23   12   19 ar
  24   13   14 1
  25   13   38 1
  26   13   39 1
  27   14   20 ar
  28   14   24 ar
  29   15   16 ar
  30   15   40 1
  31   16   17 ar
  32   16   41 1
  33   17   31 1
  34   17   18 ar
  35   18   19 ar
  36   18   42 1
  37   19   30 1
  38   20   21 ar
  39   20   43 1
  40   21   22 ar
  41   22   23 ar
  42   22   28 1
  43   23   24 ar
  44   24   44 1
  45   25   26 am
  46   25   27 2
  47   26   45 1
  48   26   46 1
  49   28   47 1
  50   28   48 1
  51   28   49 1
  52   29   50 1
  53   29   51 1
  54   29   52 1
  55   31   32 1
  56   32   53 1
  57   32   54 1
  58   32   55 1

#	End of record

