#	Name: ASD01790016
#	Creating user name:	WinNT
#	Creation time:	15. 06. 2019 19:23

#	Modifying user name:	WinNT
#	Modification time:	15. 06. 2019 19:23

#	Program:	/corina/corina34_cracker 3.40 0067  02.08.2006

@<TRIPOS>MOLECULE
ASD01790016
  52   51    0    0    0
SMALL
NO_CHARGES


@<TRIPOS>ATOM
   1 O1            -0.5060     1.9262    -0.2866 O.3     
   2 O2             0.6010     0.0338    -0.5638 O.2     
   3 C3            -2.2883    -4.0343    -0.1070 C.3     
   4 C4            -3.5543    -4.8625     0.1214 C.3     
   5 C5            -2.6254    -2.5461     0.0044 C.3     
   6 C6            -3.2172    -6.3508     0.0100 C.3     
   7 C7            -1.3594    -1.7179    -0.2240 C.3     
   8 C8            -4.4832    -7.1790     0.2384 C.3     
   9 C9            -1.6965    -0.2297    -0.1126 C.3     
  10 C10           -6.8125    -9.4686     5.9589 C.3     
  11 C11           -5.9832    -9.0159     7.1623 C.3     
  12 C12           -4.1512    -8.6448     0.1286 C.2     
  13 C13           -5.8777    -9.9464     4.8459 C.3     
  14 C14           -6.9181    -8.5381     8.2752 C.3     
  15 C15           -4.4624    -9.4618     1.1042 C.2     
  16 C16           -5.2832    -8.9679     2.2677 C.3     
  17 C17           -6.6945   -10.3924     3.6607 C.2     
  18 C18           -0.4496     0.5861    -0.3376 C.2     
  19 C19           -6.4615    -9.8841     2.4760 C.2     
  20 C20           -6.0888    -8.0853     9.4786 C.3     
  21 H21           -1.5429    -4.2953     0.6443 H       
  22 H22           -1.8916    -4.2436    -1.1004 H       
  23 H23           -3.9511    -4.6533     1.1148 H       
  24 H24           -4.2997    -4.6016    -0.6299 H       
  25 H25           -3.3708    -2.2852    -0.7469 H       
  26 H26           -3.0222    -2.3368     0.9978 H       
  27 H27           -2.8204    -6.5600    -0.9835 H       
  28 H28           -2.4718    -6.6117     0.7613 H       
  29 H29           -0.6141    -1.9788     0.5273 H       
  30 H30           -0.9627    -1.9272    -1.2174 H       
  31 H31           -4.8800    -6.9697     1.2318 H       
  32 H32           -5.2286    -6.9180    -0.5129 H       
  33 H33           -2.4419     0.0313    -0.8639 H       
  34 H34           -2.0933    -0.0204     0.8809 H       
  35 H35           -7.4696   -10.2856     6.2572 H       
  36 H36           -7.4124    -8.6339     5.5962 H       
  37 H37           -5.3834    -9.8506     7.5249 H       
  38 H38           -5.3262    -8.1989     6.8640 H       
  39 H39           -3.6565    -9.0218    -0.7543 H       
  40 H40           -5.2206    -9.1294     4.5477 H       
  41 H41           -5.2778   -10.7811     5.2086 H       
  42 H42           -7.5179    -7.7034     7.9126 H       
  43 H43           -7.5751    -9.3551     8.5735 H       
  44 H44           -4.1309   -10.4892     1.0747 H       
  45 H45           -4.6681    -8.9568     3.1675 H       
  46 H46           -5.6396    -7.9593     2.0587 H       
  47 H47           -7.4721   -11.1310     3.7879 H       
  48 H48           -7.1137   -10.1215     1.6486 H       
  49 H49           -5.4890    -8.9201     9.8413 H       
  50 H50           -5.4318    -7.2684     9.1804 H       
  51 H51           -6.7548    -7.7450    10.2715 H       
  52 H52            0.3197     2.4064    -0.4374 H       
@<TRIPOS>BOND
   1    1   18 1
   2    1   52 1
   3    2   18 2
   4    3    4 1
   5    3    5 1
   6    3   21 1
   7    3   22 1
   8    4    6 1
   9    4   23 1
  10    4   24 1
  11    5    7 1
  12    5   25 1
  13    5   26 1
  14    6    8 1
  15    6   27 1
  16    6   28 1
  17    7    9 1
  18    7   29 1
  19    7   30 1
  20    8   12 1
  21    8   31 1
  22    8   32 1
  23    9   18 1
  24    9   33 1
  25    9   34 1
  26   10   11 1
  27   10   13 1
  28   10   35 1
  29   10   36 1
  30   11   14 1
  31   11   37 1
  32   11   38 1
  33   12   15 2
  34   12   39 1
  35   13   17 1
  36   13   40 1
  37   13   41 1
  38   14   20 1
  39   14   42 1
  40   14   43 1
  41   15   16 1
  42   15   44 1
  43   16   19 1
  44   16   45 1
  45   16   46 1
  46   17   19 2
  47   17   47 1
  48   19   48 1
  49   20   49 1
  50   20   50 1
  51   20   51 1

#	End of record

