#	Name: ASD03430352
#	Creating user name:	WinNT
#	Creation time:	15. 06. 2019 20:40

#	Modifying user name:	WinNT
#	Modification time:	15. 06. 2019 20:40

#	Program:	/corina/corina34_cracker 3.40 0067  02.08.2006

@<TRIPOS>MOLECULE
ASD03430352
  57   63    0    0    0
SMALL
NO_CHARGES


@<TRIPOS>ATOM
   1 C1            -0.0166     1.3731     0.0096 C.ar    
   2 C2             0.0021    -0.0041     0.0020 C.ar    
   3 C3             1.2042    -0.6801    -0.0037 C.ar    
   4 C4             2.4064     0.0226     0.0069 C.ar    
   5 C5             2.3789     1.4121     0.0039 C.ar    
   6 C6             1.1699     2.0972     0.0022 C.ar    
   7 O7             3.4725    -0.8269     0.0325 O.3     
   8 C8             1.5601    -2.1417    -0.0330 C.3     
   9 C9             3.0504    -2.1336    -0.4017 C.3     
  10 C10            0.4369    -3.8650     1.0109 C.ar    
  11 C11            1.3140    -2.8180     1.2832 C.ar    
  12 C12            0.7430    -2.9080    -1.0329 C.2     
  13 N13            0.1236    -3.8915    -0.3499 N.am    
  14 O14            0.6571    -2.6857    -2.2222 O.2     
  15 C15            1.7632    -2.5964     2.5654 C.ar    
  16 C16            1.3449    -3.4168     3.5984 C.ar    
  17 C17            0.4739    -4.4591     3.3397 C.ar    
  18 C18            0.0205    -4.6852     2.0566 C.ar    
  19 C19           -0.7732    -4.8739    -0.9637 C.3     
  20 C20           -2.2076    -4.3423    -0.9361 C.3     
  21 C21           -5.0743    -4.1197    -2.5268 C.2     
  22 N22           -4.5177    -4.8593    -1.5507 N.am    
  23 C23           -3.1442    -5.3683    -1.5771 C.3     
  24 C24           -1.1514     2.3780     0.0353 C.3     
  25 C25           -0.4169     3.6802     0.4334 C.3     
  26 O26            0.9269     3.4375    -0.0164 O.3     
  27 C27           -6.4643    -3.7985    -2.1400 C.ar    
  28 C28           -6.6637    -4.4020    -0.8820 C.ar    
  29 C29           -5.3882    -5.0695    -0.5468 C.2     
  30 C30           -7.4937    -3.0854    -2.7332 C.ar    
  31 C31           -8.7132    -2.9708    -2.0843 C.ar    
  32 C32           -8.9088    -3.5626    -0.8506 C.ar    
  33 C33           -7.8882    -4.2790    -0.2451 C.ar    
  34 O34           -4.5250    -3.7700    -3.5520 O.2     
  35 O35           -5.1636    -5.7019     0.4654 O.2     
  36 H36           -0.9264    -0.5557     0.0009 H       
  37 H37            3.3066     1.9651     0.0036 H       
  38 H38            3.1836    -2.2456    -1.4777 H       
  39 H39            3.5871    -2.9132     0.1390 H       
  40 H40            2.4432    -1.7815     2.7654 H       
  41 H41            1.6983    -3.2437     4.6042 H       
  42 H42            0.1473    -5.0993     4.1458 H       
  43 H43           -0.6595    -5.5014     1.8622 H       
  44 H44           -0.4699    -5.0476    -1.9962 H       
  45 H45           -0.7219    -5.8100    -0.4076 H       
  46 H46           -2.5109    -4.1687     0.0963 H       
  47 H47           -2.2589    -3.4062    -1.4922 H       
  48 H48           -2.8409    -5.5420    -2.6096 H       
  49 H49           -3.0929    -6.3044    -1.0210 H       
  50 H50           -1.6088     2.4743    -0.9494 H       
  51 H51           -1.8955     2.1061     0.7839 H       
  52 H52           -0.8473     4.5392    -0.0813 H       
  53 H53           -0.4426     3.8232     1.5137 H       
  54 H54           -7.3463    -2.6206    -3.6969 H       
  55 H55           -9.5160    -2.4149    -2.5458 H       
  56 H56           -9.8635    -3.4663    -0.3549 H       
  57 H57           -8.0468    -4.7396     0.7188 H       
@<TRIPOS>BOND
   1    1    2 ar
   2    1    6 ar
   3    1   24 1
   4    2    3 ar
   5    2   36 1
   6    3    4 ar
   7    3    8 1
   8    4    5 ar
   9    4    7 1
  10    5    6 ar
  11    5   37 1
  12    6   26 1
  13    7    9 1
  14    8    9 1
  15    8   11 1
  16    8   12 1
  17    9   38 1
  18    9   39 1
  19   10   11 ar
  20   10   13 1
  21   10   18 ar
  22   11   15 ar
  23   12   13 am
  24   12   14 2
  25   13   19 1
  26   15   16 ar
  27   15   40 1
  28   16   17 ar
  29   16   41 1
  30   17   18 ar
  31   17   42 1
  32   18   43 1
  33   19   20 1
  34   19   44 1
  35   19   45 1
  36   20   23 1
  37   20   46 1
  38   20   47 1
  39   21   22 am
  40   21   27 1
  41   21   34 2
  42   22   23 1
  43   22   29 am
  44   23   48 1
  45   23   49 1
  46   24   25 1
  47   24   50 1
  48   24   51 1
  49   25   26 1
  50   25   52 1
  51   25   53 1
  52   27   28 ar
  53   27   30 ar
  54   28   29 1
  55   28   33 ar
  56   29   35 2
  57   30   31 ar
  58   30   54 1
  59   31   32 ar
  60   31   55 1
  61   32   33 ar
  62   32   56 1
  63   33   57 1

#	End of record

