#	Name: ASD03331251
#	Creating user name:	WinNT
#	Creation time:	15. 06. 2019 20:38

#	Modifying user name:	WinNT
#	Modification time:	15. 06. 2019 20:38

#	Program:	/corina/corina34_cracker 3.40 0067  02.08.2006

@<TRIPOS>MOLECULE
ASD03331251
  61   63    0    0    0
SMALL
NO_CHARGES


@<TRIPOS>ATOM
   1 N1            -0.0459     1.4956     0.5698 N.am    
   2 C2             0.0019     0.1506     1.1632 C.3     
   3 C3             0.5966    -0.8151     0.1327 C.3     
   4 N4             1.8894    -0.2950    -0.3322 N.3     
   5 C5             1.7288     0.9911    -1.0237 C.3     
   6 C6             1.1805     2.0309    -0.0406 C.3     
   7 C7            -1.1849     2.2161     0.5803 C.2     
   8 O8            -2.2139     1.7207     0.9974 O.2     
   9 N9            -1.1831     3.4859     0.1284 N.am    
  10 C10           -2.3851     4.1963     0.0330 C.ar    
  11 C11           -2.4015     5.5681     0.2481 C.ar    
  12 C12           -3.5892     6.2664     0.1527 C.ar    
  13 C13           -4.7613     5.6010    -0.1566 C.ar    
  14 C14           -4.7483     4.2350    -0.3714 C.ar    
  15 C15           -3.5629     3.5318    -0.2826 C.ar    
  16 C16            2.5723    -1.2724    -1.1902 C.3     
  17 C17            3.7648    -0.6215    -1.8425 C.ar    
  18 C18            4.9975    -0.6548    -1.2176 C.ar    
  19 C19            6.0936    -0.0581    -1.8133 C.ar    
  20 C20            5.9592     0.5728    -3.0346 C.ar    
  21 C21            4.7232     0.6072    -3.6641 C.ar    
  22 C22            3.6264     0.0030    -3.0671 C.ar    
  23 O23            4.5882     1.2277    -4.8656 O.3     
  24 C24            5.7611     1.8238    -5.4232 C.3     
  25 C25            5.4157     2.4692    -6.7668 C.3     
  26 C26            6.6715     3.1075    -7.3638 C.3     
  27 C27            5.4236     4.8610    -8.4731 C.3     
  28 N28            6.3399     3.7271    -8.6538 N.3     
  29 C29            7.5556     4.1411    -9.3670 C.3     
  30 H30            0.6285     0.1659     2.0549 H       
  31 H31           -1.0063    -0.1697     1.4260 H       
  32 H32            0.7419    -1.7929     0.5920 H       
  33 H33           -0.0837    -0.9080    -0.7138 H       
  34 H34            2.6951     1.3233    -1.4030 H       
  35 H35            1.0326     0.8731    -1.8541 H       
  36 H36            0.9515     2.9537    -0.5736 H       
  37 H37            1.9203     2.2269     0.7355 H       
  38 H38           -0.3488     3.9073    -0.1307 H       
  39 H39           -1.4865     6.0883     0.4900 H       
  40 H40           -3.6027     7.3332     0.3202 H       
  41 H41           -5.6889     6.1492    -0.2303 H       
  42 H42           -5.6653     3.7181    -0.6128 H       
  43 H43           -3.5526     2.4657    -0.4549 H       
  44 H44            2.9044    -2.1167    -0.5862 H       
  45 H45            1.8845    -1.6240    -1.9592 H       
  46 H46            5.1046    -1.1473    -0.2624 H       
  47 H47            7.0555    -0.0851    -1.3229 H       
  48 H48            6.8154     1.0393    -3.4991 H       
  49 H49            2.6633     0.0284    -3.5551 H       
  50 H50            6.1410     2.5849    -4.7416 H       
  51 H51            6.5219     1.0578    -5.5730 H       
  52 H52            5.0358     1.7082    -7.4484 H       
  53 H53            4.6549     3.2352    -6.6170 H       
  54 H54            7.0514     3.8685    -6.6822 H       
  55 H55            7.4323     2.3415    -7.5136 H       
  56 H56            5.8939     5.6102    -7.8361 H       
  57 H57            5.1945     5.3013    -9.4435 H       
  58 H58            4.5026     4.5130    -8.0055 H       
  59 H59            8.1030     4.8642    -8.7624 H       
  60 H60            8.1844     3.2696    -9.5492 H       
  61 H61            7.2813     4.5966   -10.3185 H       
@<TRIPOS>BOND
   1    1    2 1
   2    1    6 1
   3    1    7 am
   4    2    3 1
   5    2   30 1
   6    2   31 1
   7    3    4 1
   8    3   32 1
   9    3   33 1
  10    4    5 1
  11    4   16 1
  12    5    6 1
  13    5   34 1
  14    5   35 1
  15    6   36 1
  16    6   37 1
  17    7    8 2
  18    7    9 am
  19    9   10 1
  20    9   38 1
  21   10   11 ar
  22   10   15 ar
  23   11   12 ar
  24   11   39 1
  25   12   13 ar
  26   12   40 1
  27   13   14 ar
  28   13   41 1
  29   14   15 ar
  30   14   42 1
  31   15   43 1
  32   16   17 1
  33   16   44 1
  34   16   45 1
  35   17   18 ar
  36   17   22 ar
  37   18   19 ar
  38   18   46 1
  39   19   20 ar
  40   19   47 1
  41   20   21 ar
  42   20   48 1
  43   21   22 ar
  44   21   23 1
  45   22   49 1
  46   23   24 1
  47   24   25 1
  48   24   50 1
  49   24   51 1
  50   25   26 1
  51   25   52 1
  52   25   53 1
  53   26   28 1
  54   26   54 1
  55   26   55 1
  56   27   28 1
  57   27   56 1
  58   27   57 1
  59   27   58 1
  60   28   29 1
  61   29   59 1
  62   29   60 1
  63   29   61 1

#	End of record

