#	Name: ASD01915370
#	Creating user name:	WinNT
#	Creation time:	15. 06. 2019 20:05

#	Modifying user name:	WinNT
#	Modification time:	15. 06. 2019 20:05

#	Program:	/corina/corina34_cracker 3.40 0067  02.08.2006

@<TRIPOS>MOLECULE
ASD01915370
  45   48    0    0    0
SMALL
NO_CHARGES


@<TRIPOS>ATOM
   1 C1            -0.0168     1.3887     0.0097 C.ar    
   2 C2             0.0021    -0.0041     0.0020 C.ar    
   3 N3             1.1537    -0.6628    -0.0125 N.ar    
   4 C4             2.3101    -0.0318    -0.0202 C.ar    
   5 C5             2.3650     1.3500    -0.0128 C.ar    
   6 C6             1.1839     2.0778     0.0019 C.ar    
   7 C7             3.6951     2.0585    -0.0207 C.3     
   8 N8             4.6422     1.3538     0.8555 N.am    
   9 C9             5.7776     0.8820     0.0421 C.3     
  10 C10            5.8040     1.8250    -1.1866 C.3     
  11 C11            4.2896     2.0428    -1.4447 C.3     
  12 C12            4.4970     1.1702     2.1828 C.2     
  13 O13            3.5177     1.6045     2.7515 O.2     
  14 C14            5.5513     0.4252     2.9603 C.3     
  15 C15           -1.2760    -0.7571     0.0107 C.ar    
  16 C16           -1.2666    -2.1503     0.0031 C.ar    
  17 C17           -2.4600    -2.8463     0.0117 C.ar    
  18 C18           -3.6628    -2.1616     0.0278 C.ar    
  19 C19           -3.6768    -0.7784     0.0349 C.ar    
  20 C20           -2.4904    -0.0735     0.0322 C.ar    
  21 Cl21          -2.4509    -4.5823     0.0017 Cl      
  22 C22            5.2377     0.3012     4.4607 C.3     
  23 C23            5.7816    -1.1347     4.3754 C.3     
  24 C24            5.4075    -1.1040     2.8841 C.3     
  25 H25           -0.9550     1.9236     0.0170 H       
  26 H26            3.2276    -0.6014    -0.0320 H       
  27 H27            1.2008     3.1576     0.0079 H       
  28 H28            3.5694     3.0863     0.3197 H       
  29 H29            6.7077     0.9653     0.6043 H       
  30 H30            5.6155    -0.1485    -0.2740 H       
  31 H31            6.2987     2.7660    -0.9463 H       
  32 H32            6.2802     1.3418    -2.0398 H       
  33 H33            3.8753     1.2195    -2.0266 H       
  34 H34            4.1169     2.9956    -1.9453 H       
  35 H35            6.5605     0.7810     2.7531 H       
  36 H36           -0.3283    -2.6850    -0.0098 H       
  37 H37           -4.5936    -2.7091     0.0345 H       
  38 H38           -4.6181    -0.2491     0.0468 H       
  39 H39           -2.5031     1.0065     0.0378 H       
  40 H40            5.8388     0.9592     5.0882 H       
  41 H41            4.1733     0.3520     4.6900 H       
  42 H42            6.8543    -1.2067     4.5550 H       
  43 H43            5.2050    -1.8552     4.9555 H       
  44 H44            4.3895    -1.4373     2.6824 H       
  45 H45            6.1456    -1.5803     2.2388 H       
@<TRIPOS>BOND
   1    1    2 ar
   2    1    6 ar
   3    1   25 1
   4    2    3 ar
   5    2   15 1
   6    3    4 ar
   7    4    5 ar
   8    4   26 1
   9    5    6 ar
  10    5    7 1
  11    6   27 1
  12    7    8 1
  13    7   11 1
  14    7   28 1
  15    8    9 1
  16    8   12 am
  17    9   10 1
  18    9   29 1
  19    9   30 1
  20   10   11 1
  21   10   31 1
  22   10   32 1
  23   11   33 1
  24   11   34 1
  25   12   13 2
  26   12   14 1
  27   14   22 1
  28   14   24 1
  29   14   35 1
  30   15   16 ar
  31   15   20 ar
  32   16   17 ar
  33   16   36 1
  34   17   18 ar
  35   17   21 1
  36   18   19 ar
  37   18   37 1
  38   19   20 ar
  39   19   38 1
  40   20   39 1
  41   22   23 1
  42   22   40 1
  43   22   41 1
  44   23   24 1
  45   23   42 1
  46   23   43 1
  47   24   44 1
  48   24   45 1

#	End of record

