#	Name: ASD01870471
#	Creating user name:	WinNT
#	Creation time:	15. 06. 2019 19:39

#	Modifying user name:	WinNT
#	Modification time:	15. 06. 2019 19:39

#	Program:	/corina/corina34_cracker 3.40 0067  02.08.2006

@<TRIPOS>MOLECULE
ASD01870471
  41   44    0    0    0
SMALL
NO_CHARGES


@<TRIPOS>ATOM
   1 C1            -1.6018     2.8742     0.0890 C.ar    
   2 C2            -1.8977     1.5736    -0.2888 C.ar    
   3 C3            -0.9495     0.7964    -0.9271 C.ar    
   4 C4             0.3107     1.3064    -1.1980 C.ar    
   5 C5             0.6208     2.6047    -0.8263 C.ar    
   6 C6            -0.3464     3.3975    -0.1757 C.ar    
   7 C7             1.8241     3.4543    -0.9489 C.2     
   8 N8             1.5588     4.6547    -0.4027 N.am    
   9 C9             0.3019     4.7022     0.0744 C.2     
  10 O10           -0.2135     5.6568     0.6204 O.2     
  11 O11            2.8765     3.1237    -1.4570 O.2     
  12 C12            2.4728     5.7179    -0.3395 C.ar    
  13 C13            2.5349     6.6421    -1.3734 C.ar    
  14 C14            3.4338     7.6880    -1.3117 C.ar    
  15 C15            4.2766     7.8161    -0.2149 C.ar    
  16 C16            4.2146     6.8922     0.8199 C.ar    
  17 C17            3.3113     5.8485     0.7604 C.ar    
  18 Cl18           3.2287     4.6968     2.0568 Cl      
  19 N19            5.1885     8.8762    -0.1531 N.am    
  20 C20            5.4933     9.4344     1.0352 C.2     
  21 C21            6.5323    10.4662     1.1156 C.2     
  22 O22            4.9063     9.0822     2.0415 O.2     
  23 N23            7.3571    10.8719     0.0909 N.pl3   
  24 C24            8.1804    11.8431     0.5561 C.2     
  25 C25            7.8986    12.0682     1.8617 C.2     
  26 C26            6.8570    11.2109     2.2298 C.2     
  27 C27            7.3473    10.3417    -1.2747 C.3     
  28 H28           -2.3480     3.4784     0.5834 H       
  29 H29           -2.8758     1.1647    -0.0826 H       
  30 H30           -1.1920    -0.2154    -1.2165 H       
  31 H31            1.0478     0.6944    -1.6964 H       
  32 H32            1.8801     6.5427    -2.2265 H       
  33 H33            3.4820     8.4066    -2.1165 H       
  34 H34            4.8698     6.9916     1.6727 H       
  35 H35            5.6011     9.2091    -0.9654 H       
  36 H36            8.9377    12.3539    -0.0202 H       
  37 H37            8.3890    12.7850     2.5036 H       
  38 H38            6.3953    11.1432     3.2038 H       
  39 H39            6.5676    10.8387    -1.8519 H       
  40 H40            8.3157    10.5222    -1.7415 H       
  41 H41            7.1515     9.2698    -1.2470 H       
@<TRIPOS>BOND
   1    1    2 ar
   2    1    6 ar
   3    1   28 1
   4    2    3 ar
   5    2   29 1
   6    3    4 ar
   7    3   30 1
   8    4    5 ar
   9    4   31 1
  10    5    7 1
  11    5    6 ar
  12    6    9 1
  13    7    8 am
  14    7   11 2
  15    8    9 am
  16    8   12 1
  17    9   10 2
  18   12   13 ar
  19   12   17 ar
  20   13   14 ar
  21   13   32 1
  22   14   15 ar
  23   14   33 1
  24   15   16 ar
  25   15   19 1
  26   16   17 ar
  27   16   34 1
  28   17   18 1
  29   19   20 am
  30   19   35 1
  31   20   21 1
  32   20   22 2
  33   21   23 1
  34   21   26 2
  35   23   24 1
  36   23   27 1
  37   24   25 2
  38   24   36 1
  39   25   26 1
  40   25   37 1
  41   26   38 1
  42   27   39 1
  43   27   40 1
  44   27   41 1

#	End of record

