#	Name: ASD01914860
#	Creating user name:	WinNT
#	Creation time:	15. 06. 2019 20:04

#	Modifying user name:	WinNT
#	Modification time:	15. 06. 2019 20:04

#	Program:	/corina/corina34_cracker 3.40 0067  02.08.2006

@<TRIPOS>MOLECULE
ASD01914860
  38   39    0    0    0
SMALL
NO_CHARGES


@<TRIPOS>ATOM
   1 C1            -0.0183     1.4975     0.0103 C.3     
   2 C2             0.0021    -0.0041     0.0020 C.2     
   3 C3             1.0618    -0.7050    -0.3350 C.2     
   4 C4             2.3619    -0.0676    -0.7393 C.3     
   5 C5             2.1286     1.4049    -1.0868 C.3     
   6 N6             1.3522     2.0244     0.0000 N.3     
   7 C7             1.3524     3.4884    -0.1211 C.3     
   8 N8            -3.2795    -1.1989     1.0418 N.pl3   
   9 N9            -2.3673    -0.1759     0.7539 N.2     
  10 C10           -1.2270    -0.7278     0.3916 C.2     
  11 C11           -1.3826    -2.1272     0.4390 C.2     
  12 C12           -2.6545    -2.3898     0.8419 C.2     
  13 S13           -3.3649    -3.9866     1.0656 S.3     
  14 C14           -5.0562    -3.6093     1.6021 C.3     
  15 C15           -5.8181    -4.9142     1.8424 C.3     
  16 C16           -7.2446    -4.5960     2.2950 C.3     
  17 C17           -8.0065    -5.9009     2.5352 C.3     
  18 H18           -0.5496     1.8561    -0.8713 H       
  19 H19           -0.5326     1.8466     0.9057 H       
  20 H20            0.9959    -1.7829    -0.3205 H       
  21 H21            3.0718    -0.1376     0.0849 H       
  22 H22            2.7649    -0.5860    -1.6092 H       
  23 H23            3.0873     1.9136    -1.1878 H       
  24 H24            1.5724     1.4768    -2.0215 H       
  25 H25            0.8172     3.9229     0.7232 H       
  26 H26            2.3798     3.8524    -0.1262 H       
  27 H27            0.8604     3.7762    -1.0502 H       
  28 H28           -4.1959    -1.0787     1.3363 H       
  29 H29           -0.6270    -2.8602     0.1980 H       
  30 H30           -5.0239    -3.0320     2.5262 H       
  31 H31           -5.5619    -3.0303     0.8294 H       
  32 H32           -5.8503    -5.4915     0.9184 H       
  33 H33           -5.3124    -5.4932     2.6151 H       
  34 H34           -7.2123    -4.0187     3.2190 H       
  35 H35           -7.7502    -4.0170     1.5222 H       
  36 H36           -8.0387    -6.4782     1.6112 H       
  37 H37           -7.5008    -6.4799     3.3079 H       
  38 H38           -9.0227    -5.6742     2.8576 H       
@<TRIPOS>BOND
   1    1    2 1
   2    1    6 1
   3    1   18 1
   4    1   19 1
   5    2    3 2
   6    2   10 1
   7    3    4 1
   8    3   20 1
   9    4    5 1
  10    4   21 1
  11    4   22 1
  12    5    6 1
  13    5   23 1
  14    5   24 1
  15    6    7 1
  16    7   25 1
  17    7   26 1
  18    7   27 1
  19    8    9 1
  20    8   12 1
  21    8   28 1
  22    9   10 2
  23   10   11 1
  24   11   12 2
  25   11   29 1
  26   12   13 1
  27   13   14 1
  28   14   15 1
  29   14   30 1
  30   14   31 1
  31   15   16 1
  32   15   32 1
  33   15   33 1
  34   16   17 1
  35   16   34 1
  36   16   35 1
  37   17   36 1
  38   17   37 1
  39   17   38 1

#	End of record

