#	Name: ASD01912118
#	Creating user name:	WinNT
#	Creation time:	15. 06. 2019 19:59

#	Modifying user name:	WinNT
#	Modification time:	15. 06. 2019 19:59

#	Program:	/corina/corina34_cracker 3.40 0067  02.08.2006

@<TRIPOS>MOLECULE
ASD01912118
  43   46    0    0    0
SMALL
NO_CHARGES


@<TRIPOS>ATOM
   1 C1             0.0453     1.4285     0.2086 C.3     
   2 C2             0.0574    -0.0994     0.2949 C.3     
   3 C3            -1.3780    -0.6268     0.2346 C.3     
   4 C4            -2.1688    -0.0813     1.4278 C.3     
   5 N5            -2.0642     1.3842     1.4343 N.am    
   6 C6            -0.7294     1.9973     1.4015 C.3     
   7 C7            -5.4611     1.9780     0.5047 C.ar    
   8 C8            -4.5076     1.5232     1.4180 C.ar    
   9 C9            -3.1717     2.1515     1.4697 C.2     
  10 C10           -6.7062     1.3885     0.4610 C.ar    
  11 C11           -7.0130     0.3459     1.3221 C.ar    
  12 C12           -6.0699    -0.1099     2.2306 C.ar    
  13 C13           -4.8217     0.4725     2.2827 C.ar    
  14 O14           -3.0712     3.3607     1.5441 O.2     
  15 F15           -8.2352    -0.2279     1.2758 F       
  16 C16            1.4607     1.9450     0.2356 C.2     
  17 O17            2.3532     1.7648     1.2142 O.3     
  18 N18            3.3992     2.3079     0.9275 N.2     
  19 C19            3.3001     2.8854    -0.2410 C.2     
  20 N20            2.0495     2.6501    -0.6980 N.2     
  21 C21            4.3638     3.6512    -0.9386 C.ar    
  22 C22            5.6111     3.8029    -0.3392 C.ar    
  23 C23            6.5937     4.5195    -1.0020 C.ar    
  24 C24            6.2945     5.0605    -2.2435 C.ar    
  25 C25            5.0334     4.8705    -2.7799 C.ar    
  26 N26            4.1193     4.1804    -2.1301 N.ar    
  27 H27           -0.4368     1.7367    -0.7192 H       
  28 H28            0.6289    -0.5058    -0.5395 H       
  29 H29            0.5178    -0.4064     1.2340 H       
  30 H30           -1.8472    -0.2993    -0.6932 H       
  31 H31           -1.3673    -1.7161     0.2726 H       
  32 H32           -3.2152    -0.3726     1.3366 H       
  33 H33           -1.7555    -0.4813     2.3537 H       
  34 H34           -0.1987     1.7668     2.3253 H       
  35 H35           -0.8261     3.0776     1.2930 H       
  36 H36           -5.2248     2.7932    -0.1632 H       
  37 H37           -7.4443     1.7395    -0.2449 H       
  38 H38           -6.3141    -0.9221     2.8993 H       
  39 H39           -4.0878     0.1167     2.9907 H       
  40 H40            5.8096     3.3682     0.6293 H       
  41 H41            7.5707     4.6542    -0.5619 H       
  42 H42            7.0385     5.6249    -2.7860 H       
  43 H43            4.7966     5.2906    -3.7463 H       
@<TRIPOS>BOND
   1    1    2 1
   2    1   16 1
   3    1    6 1
   4    1   27 1
   5    2    3 1
   6    2   28 1
   7    2   29 1
   8    3    4 1
   9    3   30 1
  10    3   31 1
  11    4    5 1
  12    4   32 1
  13    4   33 1
  14    5    6 1
  15    5    9 am
  16    6   34 1
  17    6   35 1
  18    7    8 ar
  19    7   10 ar
  20    7   36 1
  21    8    9 1
  22    8   13 ar
  23    9   14 2
  24   10   11 ar
  25   10   37 1
  26   11   12 ar
  27   11   15 1
  28   12   13 ar
  29   12   38 1
  30   13   39 1
  31   16   17 1
  32   16   20 2
  33   17   18 1
  34   18   19 2
  35   19   20 1
  36   19   21 1
  37   21   22 ar
  38   21   26 ar
  39   22   23 ar
  40   22   40 1
  41   23   24 ar
  42   23   41 1
  43   24   25 ar
  44   24   42 1
  45   25   26 ar
  46   25   43 1

#	End of record

