#	Name: ASD01913358
#	Creating user name:	WinNT
#	Creation time:	15. 06. 2019 20:01

#	Modifying user name:	WinNT
#	Modification time:	15. 06. 2019 20:01

#	Program:	/corina/corina34_cracker 3.40 0067  02.08.2006

@<TRIPOS>MOLECULE
ASD01913358
  27   29    0    0    0
SMALL
NO_CHARGES


@<TRIPOS>ATOM
   1 C1            -0.0167     1.3784     0.0096 C.2     
   2 C2             0.0021    -0.0041     0.0020 C.2     
   3 C3             1.2490    -0.6700    -0.0135 C.2     
   4 N4             2.3620     0.0244    -0.0204 N.2     
   5 C5             2.3456     1.3595    -0.0131 C.2     
   6 N6             1.1670     2.0523     0.0019 N.pl3   
   7 C7             3.3772     2.3172    -0.0170 C.2     
   8 C8             2.7634     3.5820    -0.0039 C.2     
   9 N9             1.4660     3.4194     0.0072 N.2     
  10 C10           -1.2210    -0.7488     0.0102 C.1     
  11 C11           -2.2237    -1.3594     0.0169 C.1     
  12 C12           -3.4467    -2.1042     0.0250 C.ar    
  13 C13           -3.4181    -3.5013     0.0172 C.ar    
  14 C14           -4.6001    -4.2119     0.0256 C.ar    
  15 C15           -5.8485    -2.1615     0.0549 C.ar    
  16 C16           -4.6746    -1.4375     0.0466 C.ar    
  17 C17           -5.8123    -3.5447     0.0417 C.ar    
  18 C18            4.7846     2.0533    -0.0316 C.1     
  19 N19            5.9011     1.8440    -0.0433 N.1     
  20 H20           -0.9540     1.9149     0.0170 H       
  21 H21            1.2853    -1.7493    -0.0192 H       
  22 H22            3.2785     4.5312    -0.0031 H       
  23 H23           -2.4727    -4.0233     0.0043 H       
  24 H24           -4.5795    -5.2917     0.0193 H       
  25 H25           -6.7982    -1.6475     0.0719 H       
  26 H26           -4.7043    -0.3579     0.0572 H       
  27 H27           -6.7347    -4.1064     0.0483 H       
@<TRIPOS>BOND
   1    1    2 2
   2    1    6 1
   3    1   20 1
   4    2    3 1
   5    2   10 1
   6    3    4 2
   7    3   21 1
   8    4    5 1
   9    5    6 1
  10    5    7 2
  11    6    9 1
  12    7    8 1
  13    7   18 1
  14    8    9 2
  15    8   22 1
  16   10   11 3
  17   11   12 1
  18   12   13 ar
  19   12   16 ar
  20   13   14 ar
  21   13   23 1
  22   14   17 ar
  23   14   24 1
  24   15   16 ar
  25   15   17 ar
  26   15   25 1
  27   16   26 1
  28   17   27 1
  29   18   19 3

#	End of record

