#	Name: ASD04882062
#	Creating user name:	WinNT
#	Creation time:	15. 06. 2019 20:54

#	Modifying user name:	WinNT
#	Modification time:	15. 06. 2019 20:54

#	Program:	/corina/corina34_cracker 3.40 0067  02.08.2006

@<TRIPOS>MOLECULE
ASD04882062
  80   84    0    0    0
SMALL
NO_CHARGES


@<TRIPOS>ATOM
   1 N1            -0.7873     1.2377     0.1091 N.am    
   2 C2            -0.6090    -0.1509     0.0595 C.ar    
   3 C3            -1.7178    -1.0005     0.1046 C.ar    
   4 C4            -1.5423    -2.3787     0.0560 C.ar    
   5 C5            -0.2759    -2.9119    -0.0372 C.ar    
   6 C6             0.8373    -2.0680    -0.0827 C.ar    
   7 C7             0.6633    -0.6818    -0.0397 C.ar    
   8 N8            -3.0001    -0.4658     0.1988 N.3     
   9 C9            -3.1942     0.2133     1.4875 C.3     
  10 C10           -4.0200    -1.5041    -0.0050 C.3     
  11 C11           -5.4097    -0.8636     0.0269 C.3     
  12 N12           -5.6037    -0.1845     1.3156 N.3     
  13 C13           -4.5839     0.8538     1.5194 C.3     
  14 C14            0.1271     2.0130     0.7249 C.2     
  15 O15            1.0533     1.5010     1.3262 O.2     
  16 C16            0.0062     3.4733     0.6706 C.2     
  17 O17           -0.9666     4.1654     0.0423 O.3     
  18 C18            0.8553     4.3710     1.2520 C.2     
  19 C19            0.3622     5.6492     0.9465 C.2     
  20 C20           -0.7542     5.4779     0.2047 C.2     
  21 C21            2.1938    -2.6394    -0.1819 C.2     
  22 N22            2.3603    -3.9760    -0.2288 N.am    
  23 O23            3.1618    -1.9044    -0.2214 O.2     
  24 C24           -6.8899     0.3518     1.4101 C.ar    
  25 C25           -7.3176     1.3006     0.4904 C.ar    
  26 C26           -8.5904     1.8287     0.5864 C.ar    
  27 C27           -9.4381     1.4140     1.5969 C.ar    
  28 C28           -9.0154     0.4694     2.5145 C.ar    
  29 C29           -7.7463    -0.0668     2.4208 C.ar    
  30 C30           -7.2867    -1.0964     3.4207 C.3     
  31 C31            3.7073    -4.5434    -0.3273 C.3     
  32 C32            4.1367    -4.5859    -1.7952 C.3     
  33 C33            3.7061    -5.9411     0.2363 C.ar    
  34 C34            4.7696    -6.3772     1.0044 C.ar    
  35 C35            4.7691    -7.6589     1.5216 C.ar    
  36 C36            3.7040    -8.5055     1.2705 C.ar    
  37 C37            2.6400    -8.0684     0.5017 C.ar    
  38 C38            2.6390    -6.7846    -0.0102 C.ar    
  39 Cl39           3.7029   -10.1157     1.9193 Cl      
  40 N40            4.0234    -3.2457    -2.3761 N.am    
  41 C41            5.1626    -2.3261    -2.3239 C.3     
  42 C42            2.8712    -2.8589    -2.9584 C.2     
  43 O43            1.8988    -3.5825    -2.9186 O.2     
  44 C44            2.7911    -1.5271    -3.6591 C.3     
  45 H45           -1.5668     1.6416    -0.3033 H       
  46 H46           -2.4010    -3.0328     0.0917 H       
  47 H47           -0.1428    -3.9830    -0.0747 H       
  48 H48            1.5216    -0.0272    -0.0751 H       
  49 H49           -3.1092    -0.5117     2.2970 H       
  50 H50           -2.4349     0.9857     1.6095 H       
  51 H51           -3.8627    -1.9837    -0.9711 H       
  52 H52           -3.9444    -2.2486     0.7875 H       
  53 H53           -5.4946    -0.1386    -0.7826 H       
  54 H54           -6.1690    -1.6360    -0.0951 H       
  55 H55           -4.7412     1.3334     2.4855 H       
  56 H56           -4.6595     1.5982     0.7269 H       
  57 H57            1.7355     4.1419     1.8344 H       
  58 H58            0.7924     6.5922     1.2499 H       
  59 H59           -1.3730     6.2690    -0.1924 H       
  60 H60            1.5881    -4.5623    -0.1972 H       
  61 H61           -6.6557     1.6255    -0.2988 H       
  62 H62           -8.9236     2.5665    -0.1284 H       
  63 H63          -10.4325     1.8290     1.6702 H       
  64 H64           -9.6799     0.1480     3.3028 H       
  65 H65           -7.5367    -2.0930     3.0570 H       
  66 H66           -6.2076    -1.0180     3.5531 H       
  67 H67           -7.7834    -0.9228     4.3753 H       
  68 H68            4.4045    -3.9245     0.2375 H       
  69 H69            5.1706    -4.9245    -1.8617 H       
  70 H70            3.4930    -5.2746    -2.3423 H       
  71 H71            5.6011    -5.7164     1.2000 H       
  72 H72            5.6001    -7.9997     2.1213 H       
  73 H73            1.8082    -8.7288     0.3054 H       
  74 H74            1.8085    -6.4433    -0.6103 H       
  75 H75            5.7247    -2.3907    -3.2555 H       
  76 H76            4.8009    -1.3069    -2.1878 H       
  77 H77            5.8099    -2.5964    -1.4895 H       
  78 H78            3.7263    -0.9853    -3.5177 H       
  79 H79            2.6209    -1.6864    -4.7239 H       
  80 H80            1.9682    -0.9462    -3.2425 H       
@<TRIPOS>BOND
   1    1    2 1
   2    1   14 am
   3    1   45 1
   4    2    3 ar
   5    2    7 ar
   6    3    4 ar
   7    3    8 1
   8    4    5 ar
   9    4   46 1
  10    5    6 ar
  11    5   47 1
  12    6    7 ar
  13    6   21 1
  14    7   48 1
  15    8    9 1
  16    8   10 1
  17    9   13 1
  18    9   49 1
  19    9   50 1
  20   10   11 1
  21   10   51 1
  22   10   52 1
  23   11   12 1
  24   11   53 1
  25   11   54 1
  26   12   13 1
  27   12   24 1
  28   13   55 1
  29   13   56 1
  30   14   15 2
  31   14   16 1
  32   16   17 1
  33   16   18 2
  34   17   20 1
  35   18   19 1
  36   18   57 1
  37   19   20 2
  38   19   58 1
  39   20   59 1
  40   21   22 am
  41   21   23 2
  42   22   31 1
  43   22   60 1
  44   24   25 ar
  45   24   29 ar
  46   25   26 ar
  47   25   61 1
  48   26   27 ar
  49   26   62 1
  50   27   28 ar
  51   27   63 1
  52   28   29 ar
  53   28   64 1
  54   29   30 1
  55   30   65 1
  56   30   66 1
  57   30   67 1
  58   31   32 1
  59   31   33 1
  60   31   68 1
  61   32   40 1
  62   32   69 1
  63   32   70 1
  64   33   34 ar
  65   33   38 ar
  66   34   35 ar
  67   34   71 1
  68   35   36 ar
  69   35   72 1
  70   36   37 ar
  71   36   39 1
  72   37   38 ar
  73   37   73 1
  74   38   74 1
  75   40   41 1
  76   40   42 am
  77   41   75 1
  78   41   76 1
  79   41   77 1
  80   42   43 2
  81   42   44 1
  82   44   78 1
  83   44   79 1
  84   44   80 1

#	End of record

