#	Name: ASD01918477
#	Creating user name:	WinNT
#	Creation time:	15. 06. 2019 20:11

#	Modifying user name:	WinNT
#	Modification time:	15. 06. 2019 20:11

#	Program:	/corina/corina34_cracker 3.40 0067  02.08.2006

@<TRIPOS>MOLECULE
ASD01918477
  43   46    0    0    0
SMALL
NO_CHARGES


@<TRIPOS>ATOM
   1 F1             0.0021    -0.0041     0.0020 F       
   2 C2            -0.0162     1.3468     0.0094 C.ar    
   3 C3            -1.2247     2.0227     0.0304 C.ar    
   4 C4            -1.2455     3.4050     0.0380 C.ar    
   5 C5            -0.0609     4.1154     0.0252 C.ar    
   6 C6             1.1519     3.4415     0.0047 C.ar    
   7 O7             2.3179     4.1394    -0.0075 O.3     
   8 C8             3.5283     3.3800    -0.0285 C.3     
   9 C9             4.7088     4.3167    -0.0395 C.2     
  10 C10            4.6501     5.7170    -0.0252 C.2     
  11 C11            5.9530     6.1258    -0.0427 C.2     
  12 C12            6.5583     7.4669    -0.0386 C.2     
  13 O13            5.9118     8.4626     0.2263 O.2     
  14 N14            7.8773     7.5305    -0.3463 N.am    
  15 C15            8.5818     8.8075    -0.2086 C.3     
  16 C16            9.1524     8.9191     1.1817 C.ar    
  17 N17            8.4282     9.4584     2.1424 N.ar    
  18 C18            8.8858     9.5764     3.3735 C.ar    
  19 C19           10.1531     9.1350     3.7032 C.ar    
  20 C20           10.9462     8.5618     2.7212 C.ar    
  21 C21           10.4294     8.4488     1.4376 C.ar    
  22 F22           11.1646     7.8925     0.4501 F       
  23 C23            8.6123     6.3599    -0.8103 C.3     
  24 C24            8.1964     5.0780    -0.0908 C.3     
  25 N25            6.7321     4.9898    -0.0669 N.pl3   
  26 N26            5.9734     3.9648    -0.0585 N.2     
  27 C27            1.1727     2.0549     0.0019 C.ar    
  28 H28           -2.1520     1.4692     0.0404 H       
  29 H29           -2.1892     3.9301     0.0537 H       
  30 H30           -0.0787     5.1952     0.0309 H       
  31 H31            3.5753     2.7467     0.8574 H       
  32 H32            3.5507     2.7567    -0.9224 H       
  33 H33            3.7665     6.3377    -0.0051 H       
  34 H34            9.3901     8.8570    -0.9381 H       
  35 H35            7.8850     9.6275    -0.3822 H       
  36 H36            8.2625    10.0239     4.1335 H       
  37 H37           10.5214     9.2356     4.7135 H       
  38 H38           11.9406     8.2080     2.9501 H       
  39 H39            8.4379     6.2358    -1.8791 H       
  40 H40            9.6771     6.5255    -0.6466 H       
  41 H41            8.6043     4.2158    -0.6183 H       
  42 H42            8.5768     5.0941     0.9305 H       
  43 H43            2.1155     1.5283    -0.0099 H       
@<TRIPOS>BOND
   1    1    2 1
   2    2   27 ar
   3    2    3 ar
   4    3    4 ar
   5    3   28 1
   6    4    5 ar
   7    4   29 1
   8    5    6 ar
   9    5   30 1
  10    6    7 1
  11    6   27 ar
  12    7    8 1
  13    8    9 1
  14    8   31 1
  15    8   32 1
  16    9   26 2
  17    9   10 1
  18   10   11 2
  19   10   33 1
  20   11   25 1
  21   11   12 1
  22   12   13 2
  23   12   14 am
  24   14   15 1
  25   14   23 1
  26   15   16 1
  27   15   34 1
  28   15   35 1
  29   16   21 ar
  30   16   17 ar
  31   17   18 ar
  32   18   19 ar
  33   18   36 1
  34   19   20 ar
  35   19   37 1
  36   20   21 ar
  37   20   38 1
  38   21   22 1
  39   23   24 1
  40   23   39 1
  41   23   40 1
  42   24   25 1
  43   24   41 1
  44   24   42 1
  45   25   26 1
  46   27   43 1

#	End of record

