#	Name: ASD02500856
#	Creating user name:	WinNT
#	Creation time:	15. 06. 2019 20:23

#	Modifying user name:	WinNT
#	Modification time:	15. 06. 2019 20:23

#	Program:	/corina/corina34_cracker 3.40 0067  02.08.2006

@<TRIPOS>MOLECULE
ASD02500856
  41   43    0    0    0
SMALL
NO_CHARGES


@<TRIPOS>ATOM
   1 C1             0.3428     1.4776    -0.1982 C.ar    
   2 C2             0.2623     0.1264     0.0530 C.ar    
   3 C3             1.4830     2.0108    -0.7881 C.ar    
   4 C4             2.5477     1.1839    -1.1277 C.ar    
   5 C5             2.4780    -0.1687    -0.8811 C.ar    
   6 C6             1.3318    -0.7113    -0.2870 C.ar    
   7 C7             1.2519    -2.1532    -0.0211 C.2     
   8 C8             2.3339    -2.8152     0.4622 C.2     
   9 C9             3.6019    -2.2482     0.9358 C.2     
  10 N10            4.4876    -3.1360     1.3561 N.am    
  11 C11            4.1823    -4.4382     1.3234 C.2     
  12 S12            2.5381    -4.5655     0.6743 S.3     
  13 S13            5.1856    -5.7335     1.8198 S.2     
  14 O14            3.8221    -1.0512     0.9410 O.2     
  15 C15            5.7937    -2.6967     1.8535 C.3     
  16 C16            5.7100    -2.4539     3.3385 C.2     
  17 O17            6.7948    -2.0423     4.0134 O.3     
  18 O18            4.6665    -2.6298     3.9215 O.2     
  19 O19            1.5569     3.3440    -1.0340 O.3     
  20 C20            2.7569     3.8260    -1.6421 C.3     
  21 C21            2.6576     5.3171    -1.8366 C.ar    
  22 C22            3.0915     6.1741    -0.8426 C.ar    
  23 C23            3.0004     7.5419    -1.0209 C.ar    
  24 C24            2.4758     8.0526    -2.1934 C.ar    
  25 C25            2.0427     7.1956    -3.1878 C.ar    
  26 C26            2.1378     5.8278    -3.0113 C.ar    
  27 H27           -0.4832     2.1239     0.0595 H       
  28 H28           -0.6238    -0.2867     0.5117 H       
  29 H29            3.4310     1.6034    -1.5861 H       
  30 H30            3.3056    -0.8102    -1.1456 H       
  31 H31            0.3323    -2.6870    -0.2100 H       
  32 H32            6.5372    -3.4681     1.6527 H       
  33 H33            6.0825    -1.7739     1.3502 H       
  34 H34            6.6924    -1.8999     4.9643 H       
  35 H35            3.6068     3.5993    -0.9985 H       
  36 H36            2.8940     3.3418    -2.6090 H       
  37 H37            3.5013     5.7751     0.0735 H       
  38 H38            3.3387     8.2115    -0.2440 H       
  39 H39            2.4039     9.1212    -2.3325 H       
  40 H40            1.6325     7.5946    -4.1038 H       
  41 H41            1.7995     5.1582    -3.7881 H       
@<TRIPOS>BOND
   1    1    2 ar
   2    1    3 ar
   3    1   27 1
   4    2    6 ar
   5    2   28 1
   6    3    4 ar
   7    3   19 1
   8    4    5 ar
   9    4   29 1
  10    5    6 ar
  11    5   30 1
  12    6    7 1
  13    7    8 2
  14    7   31 1
  15    8    9 1
  16    8   12 1
  17    9   10 am
  18    9   14 2
  19   10   11 am
  20   10   15 1
  21   11   12 1
  22   11   13 2
  23   15   16 1
  24   15   32 1
  25   15   33 1
  26   16   17 1
  27   16   18 2
  28   17   34 1
  29   19   20 1
  30   20   21 1
  31   20   35 1
  32   20   36 1
  33   21   22 ar
  34   21   26 ar
  35   22   23 ar
  36   22   37 1
  37   23   24 ar
  38   23   38 1
  39   24   25 ar
  40   24   39 1
  41   25   26 ar
  42   25   40 1
  43   26   41 1

#	End of record

