#	Name: ASD01209377
#	Creating user name:	WinNT
#	Creation time:	15. 06. 2019 19:11

#	Modifying user name:	WinNT
#	Modification time:	15. 06. 2019 19:11

#	Program:	/corina/corina34_cracker 3.40 0067  02.08.2006

@<TRIPOS>MOLECULE
ASD01209377
  54   56    0    0    0
SMALL
NO_CHARGES


@<TRIPOS>ATOM
   1 C1             1.8624     1.2120    -3.2637 C.2     
   2 C2             1.7276    -0.2533    -3.1657 C.ar    
   3 C3             1.0339    -0.9720    -4.1514 C.ar    
   4 C4             0.9337    -2.3312    -4.0193 C.ar    
   5 C5             1.5181    -2.9560    -2.9203 C.ar    
   6 N6             2.1677    -2.2540    -2.0028 N.ar    
   7 C7             2.2932    -0.9466    -2.0939 C.ar    
   8 O8             1.3709     1.8058    -4.2029 O.2     
   9 O9             2.5258     1.8929    -2.3088 O.3     
  10 N10            1.4182    -4.3351    -2.7835 N.am    
  11 C11            2.0697    -4.9621    -1.7841 C.2     
  12 O12            2.8160    -4.3372    -1.0608 O.2     
  13 C13            1.8709    -6.4399    -1.5654 C.3     
  14 S14            2.8761    -6.9833    -0.1565 S.3     
  15 N15            3.5098    -9.6012    -0.3326 N.am    
  16 C16            2.3951    -8.7211     0.0417 C.3     
  17 C17            2.1045    -9.0190     1.4943 C.2     
  18 C18            2.9630    -9.9583     1.8781 C.2     
  19 C19            3.8341   -10.3233     0.7563 C.2     
  20 O20            4.7191   -11.1562     0.8027 O.2     
  21 C21            1.0427    -8.3730     2.3466 C.3     
  22 C22            4.1468    -9.6826    -1.6494 C.3     
  23 C23            5.2901    -8.7030    -1.7158 C.ar    
  24 C24            6.5592    -9.0965    -1.3334 C.ar    
  25 C25            7.6089    -8.2003    -1.3934 C.ar    
  26 C26            7.3887    -6.9047    -1.8378 C.ar    
  27 C27            6.1143    -6.5124    -2.2209 C.ar    
  28 C28            5.0692    -7.4139    -2.1644 C.ar    
  29 O29            8.4196    -6.0211    -1.8972 O.3     
  30 C30            8.1194    -4.7045    -2.3646 C.3     
  31 C31            2.6192     3.3329    -2.4703 C.3     
  32 H32            0.5889    -0.4646    -4.9945 H       
  33 H33            0.4062    -2.9134    -4.7604 H       
  34 H34            2.8334    -0.4057    -1.3310 H       
  35 H35            0.8795    -4.8466    -3.4073 H       
  36 H36            0.8191    -6.6384    -1.3593 H       
  37 H37            2.1748    -6.9837    -2.4598 H       
  38 H38            1.5205    -8.9409    -0.5706 H       
  39 H39            3.0115   -10.3885     2.8675 H       
  40 H40            0.1453    -8.9917     2.3401 H       
  41 H41            1.4080    -8.2736     3.3688 H       
  42 H42            0.8068    -7.3865     1.9476 H       
  43 H43            4.5242   -10.6927    -1.8086 H       
  44 H44            3.4165    -9.4417    -2.4218 H       
  45 H45            6.7300   -10.1051    -0.9873 H       
  46 H46            8.5999    -8.5080    -1.0943 H       
  47 H47            5.9404    -5.5043    -2.5671 H       
  48 H48            4.0778    -7.1104    -2.4670 H       
  49 H49            7.7227    -4.7604    -3.3783 H       
  50 H50            7.3785    -4.2465    -1.7092 H       
  51 H51            9.0279    -4.1023    -2.3626 H       
  52 H52            3.1336     3.5612    -3.4038 H       
  53 H53            1.6173     3.7616    -2.4932 H       
  54 H54            3.1768     3.7567    -1.6351 H       
@<TRIPOS>BOND
   1    1    2 1
   2    1    8 2
   3    1    9 1
   4    2    3 ar
   5    2    7 ar
   6    3    4 ar
   7    3   32 1
   8    4    5 ar
   9    4   33 1
  10    5    6 ar
  11    5   10 1
  12    6    7 ar
  13    7   34 1
  14    9   31 1
  15   10   11 am
  16   10   35 1
  17   11   12 2
  18   11   13 1
  19   13   14 1
  20   13   36 1
  21   13   37 1
  22   14   16 1
  23   15   16 1
  24   15   19 am
  25   15   22 1
  26   16   17 1
  27   16   38 1
  28   17   18 2
  29   17   21 1
  30   18   19 1
  31   18   39 1
  32   19   20 2
  33   21   40 1
  34   21   41 1
  35   21   42 1
  36   22   23 1
  37   22   43 1
  38   22   44 1
  39   23   24 ar
  40   23   28 ar
  41   24   25 ar
  42   24   45 1
  43   25   26 ar
  44   25   46 1
  45   26   27 ar
  46   26   29 1
  47   27   28 ar
  48   27   47 1
  49   28   48 1
  50   29   30 1
  51   30   49 1
  52   30   50 1
  53   30   51 1
  54   31   52 1
  55   31   53 1
  56   31   54 1

#	End of record

