#	Name: ASD03330452
#	Creating user name:	WinNT
#	Creation time:	15. 06. 2019 20:37

#	Modifying user name:	WinNT
#	Modification time:	15. 06. 2019 20:37

#	Program:	/corina/corina34_cracker 3.40 0067  02.08.2006

@<TRIPOS>MOLECULE
ASD03330452
  60   62    0    0    0
SMALL
NO_CHARGES


@<TRIPOS>ATOM
   1 C1            -0.2638     2.0912    -0.6958 C.3     
   2 N2            -0.1025     0.6539    -0.4346 N.3     
   3 C3             0.3541    -0.0584    -1.6417 C.3     
   4 C4             1.5422     0.6828    -2.1985 C.2     
   5 N5             1.8758     1.9503    -1.8399 N.pl3   
   6 C6             1.1129     2.7446    -0.8728 C.3     
   7 C7             2.4591     0.2674    -3.1077 C.2     
   8 N8             3.3401     1.2770    -3.2927 N.2     
   9 C9             2.9944     2.2914    -2.5319 C.2     
  10 C10            3.7038     3.5868    -2.4437 C.ar    
  11 C11            2.4902    -1.0470    -3.7734 C.2     
  12 O12            1.6373    -1.8766    -3.5214 O.2     
  13 C13            3.4947    -2.6364    -5.3232 C.3     
  14 N14            3.4638    -1.3297    -4.6614 N.am    
  15 C15           -1.3474     0.0698     0.0821 C.3     
  16 C16            4.6422     3.9385    -3.4136 C.ar    
  17 C17            4.2200    -3.6440    -4.4290 C.3     
  18 C18            3.4135    -3.8612    -3.1470 C.3     
  19 C19            4.3647    -4.9736    -5.1719 C.3     
  20 C20            5.6070    -3.1047    -4.0737 C.3     
  21 C21            4.2219    -2.5166    -6.6377 C.2     
  22 O22            4.8165    -1.4955    -6.9109 O.2     
  23 N23            4.2117    -3.5443    -7.5096 N.am    
  24 C24            4.9846    -3.4594    -8.7511 C.3     
  25 C25            5.3014     5.1502    -3.3253 C.ar    
  26 C26            5.0307     6.0132    -2.2758 C.ar    
  27 C27            4.1010     5.6679    -1.3116 C.ar    
  28 C28            3.4323     4.4639    -1.3929 C.ar    
  29 C29            5.7523     7.3331    -2.1842 C.3     
  30 F30            6.2113     5.4931    -4.2632 F       
  31 H31           -0.8507     2.2309    -1.6036 H       
  32 H32           -0.7804     2.5563     0.1438 H       
  33 H33            0.6439    -1.0764    -1.3812 H       
  34 H34           -0.4462    -0.0804    -2.3814 H       
  35 H35            0.9920     3.7615    -1.2461 H       
  36 H36            1.6368     2.7630     0.0828 H       
  37 H37            2.4749    -2.9773    -5.5019 H       
  38 H38            4.1440    -0.6681    -4.8624 H       
  39 H39           -2.1591     0.2662    -0.6185 H       
  40 H40           -1.2221    -1.0065     0.2004 H       
  41 H41           -1.5849     0.5162     1.0477 H       
  42 H42            4.8535     3.2656    -4.2315 H       
  43 H43            2.4254    -4.2454    -3.4001 H       
  44 H44            3.9302    -4.5790    -2.5100 H       
  45 H45            3.3104    -2.9139    -2.6177 H       
  46 H46            4.8410    -4.8006    -6.1370 H       
  47 H47            4.9771    -5.6550    -4.5814 H       
  48 H48            3.3790    -5.4125    -5.3267 H       
  49 H49            5.5039    -2.1574    -3.5444 H       
  50 H50            6.1237    -3.8225    -3.4367 H       
  51 H51            6.1815    -2.9499    -4.9870 H       
  52 H52            3.6925    -4.3403    -7.3150 H       
  53 H53            4.8542    -4.3775    -9.3239 H       
  54 H54            4.6347    -2.6112    -9.3396 H       
  55 H55            6.0401    -3.3261    -8.5136 H       
  56 H56            3.8944     6.3447    -0.4957 H       
  57 H57            2.7066     4.1964    -0.6391 H       
  58 H58            5.1849     8.0952    -2.7185 H       
  59 H59            5.8516     7.6210    -1.1377 H       
  60 H60            6.7422     7.2377    -2.6303 H       
@<TRIPOS>BOND
   1    1    2 1
   2    1    6 1
   3    1   31 1
   4    1   32 1
   5    2    3 1
   6    2   15 1
   7    3    4 1
   8    3   33 1
   9    3   34 1
  10    4    5 1
  11    4    7 2
  12    5    6 1
  13    5    9 1
  14    6   35 1
  15    6   36 1
  16    7    8 1
  17    7   11 1
  18    8    9 2
  19    9   10 1
  20   10   16 ar
  21   10   28 ar
  22   11   12 2
  23   11   14 am
  24   13   14 1
  25   13   17 1
  26   13   21 1
  27   13   37 1
  28   14   38 1
  29   15   39 1
  30   15   40 1
  31   15   41 1
  32   16   25 ar
  33   16   42 1
  34   17   18 1
  35   17   19 1
  36   17   20 1
  37   18   43 1
  38   18   44 1
  39   18   45 1
  40   19   46 1
  41   19   47 1
  42   19   48 1
  43   20   49 1
  44   20   50 1
  45   20   51 1
  46   21   22 2
  47   21   23 am
  48   23   24 1
  49   23   52 1
  50   24   53 1
  51   24   54 1
  52   24   55 1
  53   25   26 ar
  54   25   30 1
  55   26   27 ar
  56   26   29 1
  57   27   28 ar
  58   27   56 1
  59   28   57 1
  60   29   58 1
  61   29   59 1
  62   29   60 1

#	End of record

