#	Name: ASD03180068
#	Creating user name:	WinNT
#	Creation time:	15. 06. 2019 20:33

#	Modifying user name:	WinNT
#	Modification time:	15. 06. 2019 20:33

#	Program:	/corina/corina34_cracker 3.40 0067  02.08.2006

@<TRIPOS>MOLECULE
ASD03180068
  38   40    0    0    0
SMALL
NO_CHARGES


@<TRIPOS>ATOM
   1 C1             0.4073     1.0188    -1.5056 C.ar    
   2 C2             0.0934    -0.0505    -0.6872 C.ar    
   3 C3             0.9358    -0.4005     0.3525 C.ar    
   4 C4             2.0935     0.3178     0.5767 C.ar    
   5 C5             2.4120     1.3929    -0.2437 C.ar    
   6 C6             1.5641     1.7413    -1.2872 C.ar    
   7 N7             3.5828     2.1224    -0.0193 N.pl3   
   8 N8             4.6100     4.2729    -0.0399 N.2     
   9 C9             4.4021     5.5841    -0.1567 C.2     
  10 C10            3.5673     3.5051    -0.1164 C.2     
  11 S11            2.1292     4.4906    -0.3635 S.3     
  12 C12            3.1195     5.9476    -0.3413 C.2     
  13 C13            5.5027     6.5698    -0.0877 C.2     
  14 S14            5.3404     8.3188    -0.2278 S.3     
  15 C15            7.0286     8.5013    -0.0301 C.2     
  16 N16            7.5909     7.3494     0.1189 N.2     
  17 C17            6.8104     6.2904     0.0998 C.2     
  18 C18            7.7570     9.8206    -0.0304 C.3     
  19 C19            7.3314     4.8864     0.2679 C.3     
  20 C20            3.0102    -0.0636     1.7104 C.3     
  21 C21            0.5894    -1.5667     1.2418 C.3     
  22 H22           -0.2504     1.2867    -2.3192 H       
  23 H23           -0.8119    -0.6136    -0.8599 H       
  24 H24            1.8089     2.5762    -1.9270 H       
  25 H25            4.4063     1.6611     0.2044 H       
  26 H26            2.7591     6.9592    -0.4563 H       
  27 H27            7.8059    10.2088     0.9870 H       
  28 H28            8.7673     9.6777    -0.4137 H       
  29 H29            7.2247    10.5295    -0.6645 H       
  30 H30            7.5871     4.4744    -0.7083 H       
  31 H31            8.2195     4.9017     0.8998 H       
  32 H32            6.5646     4.2677     0.7340 H       
  33 H33            3.7446    -0.7870     1.3561 H       
  34 H34            3.5235     0.8252     2.0773 H       
  35 H35            2.4257    -0.5049     2.5176 H       
  36 H36            1.0188    -2.4792     0.8282 H       
  37 H37            0.9931    -1.3951     2.2397 H       
  38 H38           -0.4941    -1.6694     1.3009 H       
@<TRIPOS>BOND
   1    1    2 ar
   2    1    6 ar
   3    1   22 1
   4    2    3 ar
   5    2   23 1
   6    3    4 ar
   7    3   21 1
   8    4    5 ar
   9    4   20 1
  10    5    6 ar
  11    5    7 1
  12    6   24 1
  13    7   10 1
  14    7   25 1
  15    8   10 2
  16    8    9 1
  17    9   12 2
  18    9   13 1
  19   10   11 1
  20   11   12 1
  21   12   26 1
  22   13   14 1
  23   13   17 2
  24   14   15 1
  25   15   16 2
  26   15   18 1
  27   16   17 1
  28   17   19 1
  29   18   27 1
  30   18   28 1
  31   18   29 1
  32   19   30 1
  33   19   31 1
  34   19   32 1
  35   20   33 1
  36   20   34 1
  37   20   35 1
  38   21   36 1
  39   21   37 1
  40   21   38 1

#	End of record

