#	Name: ASD08370001
#	Creating user name:	WinNT
#	Creation time:	15. 06. 2019 21:19

#	Modifying user name:	WinNT
#	Modification time:	15. 06. 2019 21:19

#	Program:	/corina/corina34_cracker 3.40 0067  02.08.2006

@<TRIPOS>MOLECULE
ASD08370001
  47   49    0    0    0
SMALL
NO_CHARGES


@<TRIPOS>ATOM
   1 C1            -0.0170     1.4007     0.0097 C.ar    
   2 C2             0.0021    -0.0041     0.0020 C.ar    
   3 N3            -1.1507    -0.6658     0.0101 N.ar    
   4 C4            -2.2961    -0.0178     0.0252 C.ar    
   5 N5            -2.3644     1.3012     0.0329 N.ar    
   6 C6            -1.2648     2.0472     0.0302 C.ar    
   7 N7             1.2719     1.8175    -0.0003 N.2     
   8 C8             2.0616     0.7832    -0.0134 C.2     
   9 N9             1.3258    -0.3643    -0.0126 N.pl3   
  10 C10            1.8520    -1.7315    -0.0245 C.3     
  11 C11            1.9413    -2.2860     1.4146 C.3     
  12 N12           -1.3463     3.4286     0.0389 N.pl3   
  13 C13            3.2379    -3.1263     1.4134 C.3     
  14 C14            3.7786    -2.9802    -0.0263 C.3     
  15 O15            3.2125    -1.7424    -0.5092 O.3     
  16 O16            0.8106    -3.1102     1.7047 O.3     
  17 O17            2.9475    -4.4953     1.7027 O.3     
  18 C18            5.3064    -2.8989    -0.0158 C.3     
  19 O19            5.7917    -2.8815    -1.3597 O.3     
  20 P20            7.3575    -2.8005    -1.7256 P.3     
  21 O21            7.5297    -2.6688    -3.3209 O.3     
  22 O22            7.9579    -1.6197    -1.0655 O.2     
  23 O23            8.0979    -4.1355    -1.2142 O.3     
  24 P24            8.7511    -2.2514    -4.2833 P.3     
  25 O25            8.1753    -1.8109    -5.7208 O.3     
  26 O26            9.4900    -1.1198    -3.6800 O.2     
  27 O27            9.7445    -3.5054    -4.4644 O.3     
  28 P28            8.7952    -1.0222    -6.9800 P.3     
  29 S29            9.3252     0.6826    -6.4455 S.2     
  30 O30           10.0698    -1.8283    -7.5437 O.3     
  31 O31            7.6827    -0.9001    -8.1374 O.3     
  32 H32           -3.2147    -0.5858     0.0310 H       
  33 H33            3.1407     0.8274    -0.0238 H       
  34 H34            1.2229    -2.3741    -0.6404 H       
  35 H35            2.0154    -1.4706     2.1341 H       
  36 H36           -2.2135     3.8632     0.0471 H       
  37 H37           -0.5364     3.9623     0.0368 H       
  38 H38            3.9529    -2.7264     2.1323 H       
  39 H39            3.4464    -3.8154    -0.6429 H       
  40 H40            0.8154    -3.4850     2.5961 H       
  41 H41            2.5491    -4.6376     2.5722 H       
  42 H42            5.6182    -1.9878     0.4949 H       
  43 H43            5.7128    -3.7652     0.5061 H       
  44 H44            7.7550    -4.9502    -1.6064 H       
  45 H45            9.3266    -4.2849    -4.8554 H       
  46 H46            9.8674    -2.7260    -7.8408 H       
  47 H47            7.9875    -0.4349    -8.9285 H       
@<TRIPOS>BOND
   1    1    2 ar
   2    1    7 1
   3    1    6 ar
   4    2    3 ar
   5    2    9 1
   6    3    4 ar
   7    4    5 ar
   8    4   32 1
   9    5    6 ar
  10    6   12 1
  11    7    8 2
  12    8    9 1
  13    8   33 1
  14    9   10 1
  15   10   11 1
  16   10   15 1
  17   10   34 1
  18   11   13 1
  19   11   16 1
  20   11   35 1
  21   12   36 1
  22   12   37 1
  23   13   14 1
  24   13   17 1
  25   13   38 1
  26   14   15 1
  27   14   18 1
  28   14   39 1
  29   16   40 1
  30   17   41 1
  31   18   19 1
  32   18   42 1
  33   18   43 1
  34   19   20 1
  35   20   21 1
  36   20   22 2
  37   20   23 1
  38   21   24 1
  39   23   44 1
  40   24   25 1
  41   24   26 2
  42   24   27 1
  43   25   28 1
  44   27   45 1
  45   28   29 2
  46   28   30 1
  47   28   31 1
  48   30   46 1
  49   31   47 1

#	End of record

