#	Name: ASD03330131
#	Creating user name:	WinNT
#	Creation time:	15. 06. 2019 20:36

#	Modifying user name:	WinNT
#	Modification time:	15. 06. 2019 20:36

#	Program:	/corina/corina34_cracker 3.40 0067  02.08.2006

@<TRIPOS>MOLECULE
ASD03330131
  74   77    0    0    0
SMALL
NO_CHARGES


@<TRIPOS>ATOM
   1 N1             0.0917     1.6540    -0.3739 N.am    
   2 C2             0.2729     0.1959    -0.3766 C.3     
   3 C3             0.8160    -0.2309    -1.7440 C.3     
   4 C4             2.0886     0.5612    -2.0528 C.3     
   5 C5             1.7608     2.0551    -2.1082 C.3     
   6 C6             1.2284     2.5078    -0.7450 C.3     
   7 C7             3.1101     0.3110    -0.9735 C.2     
   8 O8             3.6284     1.2459    -0.4006 O.2     
   9 N9             3.4476    -0.9518    -0.6448 N.am    
  10 C10            2.6446     0.1196    -3.3820 C.ar    
  11 C11            3.7418     0.7649    -3.9211 C.ar    
  12 C12            4.2519     0.3599    -5.1404 C.ar    
  13 C13            3.6649    -0.6908    -5.8204 C.ar    
  14 C14            2.5683    -1.3367    -5.2810 C.ar    
  15 C15            2.0609    -0.9345    -4.0597 C.ar    
  16 C16           -1.0962     2.1977    -0.0428 C.2     
  17 O17           -2.1015     1.5114    -0.0451 O.2     
  18 C18           -1.1776     3.6148     0.3200 C.2     
  19 C19           -2.3354     4.3067     0.5135 C.2     
  20 C20           -2.1647     5.6334     0.8500 C.2     
  21 C21           -0.8496     6.0319     0.9328 C.2     
  22 S22            0.2040     4.6704     0.5769 S.3     
  23 C23           -3.3007     6.5520     1.1012 C.ar    
  24 C24           -3.5733     7.5892     0.2082 C.ar    
  25 C25           -4.6331     8.4413     0.4473 C.ar    
  26 C26           -5.4241     8.2678     1.5703 C.ar    
  27 C27           -5.1572     7.2407     2.4592 C.ar    
  28 C28           -4.1040     6.3795     2.2271 C.ar    
  29 Cl29          -6.7550     9.3427     1.8651 Cl      
  30 Cl30          -2.5818     7.8078    -1.1999 Cl      
  31 C31           -0.3938     7.3929     1.2734 C.ar    
  32 C32           -0.9251     8.0522     2.3851 C.ar    
  33 C33           -0.4964     9.3234     2.6995 C.ar    
  34 C34            0.4623     9.9497     1.9132 C.ar    
  35 C35            0.9932     9.2981     0.8072 C.ar    
  36 C36            0.5747     8.0246     0.4886 C.ar    
  37 O37            0.8817    11.2031     2.2266 O.3     
  38 C38            1.8697    11.7883     1.3761 C.3     
  39 C39            2.2139    13.1900     1.8835 C.3     
  40 C40            3.2717    13.8166     0.9728 C.3     
  41 N41            3.6023    15.1625     1.4600 N.3     
  42 H42            0.9816    -0.0856     0.4022 H       
  43 H43           -0.6850    -0.2916    -0.1955 H       
  44 H44            1.0456    -1.2963    -1.7278 H       
  45 H45            0.0679    -0.0310    -2.5111 H       
  46 H46            2.6628     2.6167    -2.3512 H       
  47 H47            1.0038     2.2334    -2.8719 H       
  48 H48            0.9009     3.5456    -0.8069 H       
  49 H49            2.0150     2.4147     0.0038 H       
  50 H50            3.0886    -1.6972    -1.1511 H       
  51 H51            4.0496    -1.1151     0.0981 H       
  52 H52            4.2004     1.5858    -3.3897 H       
  53 H53            5.1087     0.8645    -5.5618 H       
  54 H54            4.0630    -1.0068    -6.7734 H       
  55 H55            2.1095    -2.1573    -5.8125 H       
  56 H56            1.2064    -1.4415    -3.6365 H       
  57 H57           -3.3098     3.8523     0.4112 H       
  58 H58           -4.8452     9.2447    -0.2427 H       
  59 H59           -5.7773     7.1103     3.3338 H       
  60 H60           -3.9000     5.5757     2.9190 H       
  61 H61           -1.6708     7.5662     2.9968 H       
  62 H62           -0.9068     9.8338     3.5583 H       
  63 H63            1.7385     9.7888     0.1987 H       
  64 H64            0.9915     7.5169    -0.3686 H       
  65 H65            2.7668    11.1693     1.3819 H       
  66 H66            1.4809    11.8550     0.3599 H       
  67 H67            1.3168    13.8091     1.8776 H       
  68 H68            2.6027    13.1233     2.8996 H       
  69 H69            4.1689    13.1976     0.9786 H       
  70 H70            2.8830    13.8833    -0.0433 H       
  71 H71            4.2995    15.5978     0.8747 H       
  72 H72            2.7751    15.7367     1.5251 H       
  73 Cl73          10.1087    20.7367     8.5583 Cl      
  74 H74           10.1087    22.1067     8.5583 H       
@<TRIPOS>BOND
   1    1    2 1
   2    1    6 1
   3    1   16 am
   4    2    3 1
   5    2   42 1
   6    2   43 1
   7    3    4 1
   8    3   44 1
   9    3   45 1
  10    4    5 1
  11    4    7 1
  12    4   10 1
  13    5    6 1
  14    5   46 1
  15    5   47 1
  16    6   48 1
  17    6   49 1
  18    7    8 2
  19    7    9 am
  20    9   50 1
  21    9   51 1
  22   10   11 ar
  23   10   15 ar
  24   11   12 ar
  25   11   52 1
  26   12   13 ar
  27   12   53 1
  28   13   14 ar
  29   13   54 1
  30   14   15 ar
  31   14   55 1
  32   15   56 1
  33   16   17 2
  34   16   18 1
  35   18   19 2
  36   18   22 1
  37   19   20 1
  38   19   57 1
  39   20   21 2
  40   20   23 1
  41   21   22 1
  42   21   31 1
  43   23   24 ar
  44   23   28 ar
  45   24   25 ar
  46   24   30 1
  47   25   26 ar
  48   25   58 1
  49   26   27 ar
  50   26   29 1
  51   27   28 ar
  52   27   59 1
  53   28   60 1
  54   31   32 ar
  55   31   36 ar
  56   32   33 ar
  57   32   61 1
  58   33   34 ar
  59   33   62 1
  60   34   35 ar
  61   34   37 1
  62   35   36 ar
  63   35   63 1
  64   36   64 1
  65   37   38 1
  66   38   39 1
  67   38   65 1
  68   38   66 1
  69   39   40 1
  70   39   67 1
  71   39   68 1
  72   40   41 1
  73   40   69 1
  74   40   70 1
  75   41   71 1
  76   41   72 1
  77   73   74 1

#	End of record

