#	Name: ASD08150611
#	Creating user name:	WinNT
#	Creation time:	15. 06. 2019 21:16

#	Modifying user name:	WinNT
#	Modification time:	15. 06. 2019 21:16

#	Program:	/corina/corina34_cracker 3.40 0067  02.08.2006

@<TRIPOS>MOLECULE
ASD08150611
  67   72    0    0    0
SMALL
NO_CHARGES


@<TRIPOS>ATOM
   1 N1             0.9846     2.6497     0.1356 N.am    
   2 C2             1.1245     1.3140     0.2404 C.2     
   3 C3             2.3682     0.6956     0.0005 C.2     
   4 C4             3.4483     1.4436    -0.3413 C.2     
   5 C5             3.3045     2.8490    -0.4524 C.ar    
   6 C6             4.3923     3.6709    -0.8042 C.ar    
   7 N7             4.2567     4.9673    -0.9059 N.ar    
   8 C8             3.0869     5.5862    -0.6845 C.ar    
   9 C9             1.9386     4.8381    -0.3261 C.ar    
  10 C10            2.0519     3.4328    -0.2070 C.ar    
  11 C11            0.7246     5.4927    -0.0966 C.ar    
  12 C12            0.6581     6.8708    -0.2228 C.ar    
  13 C13            1.7985     7.6044    -0.5783 C.ar    
  14 C14            2.9864     6.9819    -0.8047 C.ar    
  15 O15            0.1624     0.6307     0.5475 O.2     
  16 C16           -0.6258     7.5731     0.0188 C.ar    
  17 C17           -0.2647     3.2402     0.3738 C.ar    
  18 C18           -1.2331     3.2410    -0.6203 C.ar    
  19 C19           -2.4637     3.8218    -0.3864 C.ar    
  20 C20           -2.7356     4.4067     0.8444 C.ar    
  21 C21           -1.7697     4.4080     1.8418 C.ar    
  22 C22           -0.5367     3.8213     1.6108 C.ar    
  23 N23           -3.9821     4.9943     1.0784 N.3     
  24 C24           -5.0125     4.4048     0.2140 C.3     
  25 C25           -6.3271     5.1677     0.3918 C.3     
  26 C26           -0.6422     8.8315     0.6300 C.ar    
  27 C27           -4.3549     4.8913     2.4951 C.3     
  28 C28           -5.6499     5.6688     2.7410 C.3     
  29 C29           -6.7607     5.0928     1.8585 C.3     
  30 N30           -7.9914     5.8724     2.0470 N.3     
  31 O31            0.4085     3.8165     2.5877 O.3     
  32 C32            0.0604     4.4303     3.8304 C.3     
  33 C33           -1.8626     9.4468     0.8337 C.ar    
  34 C34           -3.0245     8.8011     0.4283 C.ar    
  35 N35           -2.9749     7.6105    -0.1468 N.ar    
  36 C36           -1.8318     6.9921    -0.3646 C.ar    
  37 O37           -4.2260     9.3995     0.6252 O.3     
  38 C38           -5.3910     8.6359     0.3063 C.3     
  39 H39            2.4622    -0.3766     0.0891 H       
  40 H40            4.4035     0.9744    -0.5255 H       
  41 H41            5.3564     3.2223    -0.9930 H       
  42 H42           -0.1547     4.9283     0.1766 H       
  43 H43            1.7330     8.6781    -0.6736 H       
  44 H44            3.8551     7.5628    -1.0773 H       
  45 H45           -1.0238     2.7874    -1.5778 H       
  46 H46           -3.2160     3.8219    -1.1614 H       
  47 H47           -1.9812     4.8626     2.7984 H       
  48 H48           -4.6936     4.4683    -0.8264 H       
  49 H49           -5.1597     3.3594     0.4854 H       
  50 H50           -6.1842     6.2102     0.1074 H       
  51 H51           -7.0957     4.7201    -0.2382 H       
  52 H52            0.2765     9.3101     0.9355 H       
  53 H53           -4.5051     3.8437     2.7558 H       
  54 H54           -3.5584     5.3082     3.1114 H       
  55 H55           -5.9347     5.5792     3.7893 H       
  56 H56           -5.4963     6.7192     2.4935 H       
  57 H57           -6.9413     4.0533     2.1322 H       
  58 H58           -8.7600     5.4639     1.5365 H       
  59 H59           -8.2155     5.9631     3.0266 H       
  60 H60           -0.1816     5.4797     3.6621 H       
  61 H61           -0.8043     3.9219     4.2570 H       
  62 H62            0.9015     4.3574     4.5198 H       
  63 H63           -1.9129    10.4182     1.3030 H       
  64 H64           -1.8309     6.0209    -0.8370 H       
  65 H65           -5.3271     8.2890    -0.7250 H       
  66 H66           -5.4571     7.7776     0.9749 H       
  67 H67           -6.2776     9.2587     0.4259 H       
@<TRIPOS>BOND
   1    1    2 am
   2    1   10 1
   3    1   17 1
   4    2    3 1
   5    2   15 2
   6    3    4 2
   7    3   39 1
   8    4    5 1
   9    4   40 1
  10    5    6 ar
  11    5   10 ar
  12    6    7 ar
  13    6   41 1
  14    7    8 ar
  15    8    9 ar
  16    8   14 ar
  17    9   10 ar
  18    9   11 ar
  19   11   12 ar
  20   11   42 1
  21   12   13 ar
  22   12   16 1
  23   13   14 ar
  24   13   43 1
  25   14   44 1
  26   16   26 ar
  27   16   36 ar
  28   17   18 ar
  29   17   22 ar
  30   18   19 ar
  31   18   45 1
  32   19   20 ar
  33   19   46 1
  34   20   21 ar
  35   20   23 1
  36   21   22 ar
  37   21   47 1
  38   22   31 1
  39   23   24 1
  40   23   27 1
  41   24   25 1
  42   24   48 1
  43   24   49 1
  44   25   29 1
  45   25   50 1
  46   25   51 1
  47   26   33 ar
  48   26   52 1
  49   27   28 1
  50   27   53 1
  51   27   54 1
  52   28   29 1
  53   28   55 1
  54   28   56 1
  55   29   30 1
  56   29   57 1
  57   30   58 1
  58   30   59 1
  59   31   32 1
  60   32   60 1
  61   32   61 1
  62   32   62 1
  63   33   34 ar
  64   33   63 1
  65   34   35 ar
  66   34   37 1
  67   35   36 ar
  68   36   64 1
  69   37   38 1
  70   38   65 1
  71   38   66 1
  72   38   67 1

#	End of record

