#	Name: ASD04590114
#	Creating user name:	WinNT
#	Creation time:	15. 06. 2019 20:50

#	Modifying user name:	WinNT
#	Modification time:	15. 06. 2019 20:50

#	Program:	/corina/corina34_cracker 3.40 0067  02.08.2006

@<TRIPOS>MOLECULE
ASD04590114
  23   24    0    0    0
SMALL
NO_CHARGES


@<TRIPOS>ATOM
   1 N1            -0.0153     1.2782     0.0091 N.pl3   
   2 N2             0.0021    -0.0041     0.0020 N.2     
   3 C3             1.2421    -0.4515    -0.0122 C.2     
   4 C4             2.1025     0.7382    -0.0141 C.2     
   5 C5             1.2309     1.7907    -0.0001 C.2     
   6 C6             1.6769    -1.8616    -0.0240 C.2     
   7 O7             2.8622    -2.1322    -0.0363 O.2     
   8 N8             0.7602    -2.8496    -0.0210 N.am    
   9 C9             3.5851     0.7869    -0.0272 C.ar    
  10 C10            4.2504     1.5888    -0.9527 C.ar    
  11 C11            4.3177     0.0352     0.8895 C.ar    
  12 C12            5.6969     0.0842     0.8727 C.ar    
  13 C13            6.3521     0.8775    -0.0519 C.ar    
  14 C14            5.6299     1.6301    -0.9604 C.ar    
  15 H15           -0.8248     1.8127     0.0159 H       
  16 H16            1.4924     2.8386     0.0031 H       
  17 H17           -0.1855    -2.6337    -0.0112 H       
  18 H18            1.0460    -3.7765    -0.0287 H       
  19 H19            3.6875     2.1765    -1.6627 H       
  20 H20            3.8072    -0.5843     1.6120 H       
  21 H21            6.2656    -0.4976     1.5829 H       
  22 H22            7.4314     0.9132    -0.0612 H       
  23 H23            6.1466     2.2478    -1.6801 H       
@<TRIPOS>BOND
   1    1    2 1
   2    1    5 1
   3    1   15 1
   4    2    3 2
   5    3    4 1
   6    3    6 1
   7    4    5 2
   8    4    9 1
   9    5   16 1
  10    6    7 2
  11    6    8 am
  12    8   17 1
  13    8   18 1
  14    9   10 ar
  15    9   11 ar
  16   10   14 ar
  17   10   19 1
  18   11   12 ar
  19   11   20 1
  20   12   13 ar
  21   12   21 1
  22   13   14 ar
  23   13   22 1
  24   14   23 1

#	End of record

