#	Name: ASD03730946
#	Creating user name:	WinNT
#	Creation time:	15. 06. 2019 20:44

#	Modifying user name:	WinNT
#	Modification time:	15. 06. 2019 20:44

#	Program:	/corina/corina34_cracker 3.40 0067  02.08.2006

@<TRIPOS>MOLECULE
ASD03730946
  65   71    0    0    0
SMALL
NO_CHARGES


@<TRIPOS>ATOM
   1 C1            -0.0180     1.4742     0.0101 C.2     
   2 C2             0.0021    -0.0041     0.0020 C.ar    
   3 C3             1.2186    -0.6886    -0.0133 C.ar    
   4 C4             1.2303    -2.0679    -0.0203 C.ar    
   5 C5             0.0396    -2.7730    -0.0127 C.ar    
   6 C6            -1.1694    -2.1008     0.0024 C.ar    
   7 C7            -1.1950    -0.7213     0.0154 C.ar    
   8 O8             1.0263     2.0963     0.0035 O.2     
   9 N9            -1.1942     2.1322     0.0193 N.am    
  10 C10           -1.2141     3.5970     0.0274 C.3     
  11 C11           -2.6415     4.0800     0.0368 C.ar    
  12 C12           -3.3574     4.0982     1.2194 C.ar    
  13 C13           -4.6666     4.5411     1.2280 C.ar    
  14 C14           -5.2602     4.9664     0.0540 C.ar    
  15 C15           -4.5443     4.9490    -1.1281 C.ar    
  16 C16           -3.2333     4.5101    -1.1359 C.ar    
  17 C17           -2.7103     3.6346     2.4991 C.3     
  18 F18           -3.6257     3.7455     3.5512 F       
  19 F19           -2.3141     2.2997     2.3643 F       
  20 F20           -1.5905     4.4284     2.7696 F       
  21 C21            2.5426    -2.8085    -0.0368 C.3     
  22 O22           -0.8950    -3.3222     6.2568 O.3     
  23 C23           -0.9357    -3.5767     7.6734 C.3     
  24 O24           -0.0305    -4.6825     7.8486 O.3     
  25 C25            0.8672    -4.5864     6.8240 C.ar    
  26 C26            0.3345    -3.7506     5.8451 C.ar    
  27 C27            2.1164    -5.1528     6.6449 C.ar    
  28 C28            2.8483    -4.8954     5.4896 C.ar    
  29 C29            2.3022    -4.0656     4.5151 C.ar    
  30 C30            1.0594    -3.4944     4.6934 C.ar    
  31 O31            4.0884    -5.3328     5.1276 O.3     
  32 C32            3.3036    -4.0052     3.3929 C.3     
  33 C33            4.2536    -5.1693     3.7058 C.3     
  34 N34            2.9813    -3.0555     1.3390 N.am    
  35 C35            2.6574    -4.1565     2.0459 C.2     
  36 C36            4.0258    -2.6916     3.3422 C.ar    
  37 C37            4.7978    -1.9949     4.2449 C.ar    
  38 C38            5.3433    -0.7733     3.8926 C.ar    
  39 C39            5.1110    -0.2535     2.6322 C.ar    
  40 C40            4.3376    -0.9471     1.7248 C.ar    
  41 C41            3.7848    -2.1777     2.0707 C.ar    
  42 O42            1.9775    -5.0871     1.6680 O.2     
  43 H43            2.1485    -0.1394    -0.0199 H       
  44 H44            0.0543    -3.8529    -0.0190 H       
  45 H45           -2.0951    -2.6570     0.0083 H       
  46 H46           -2.1395    -0.1977     0.0314 H       
  47 H47           -2.0276     1.6358     0.0206 H       
  48 H48           -0.7010     3.9625     0.9169 H       
  49 H49           -0.7094     3.9721    -0.8630 H       
  50 H50           -5.2260     4.5546     2.1518 H       
  51 H51           -6.2835     5.3118     0.0606 H       
  52 H52           -5.0082     5.2809    -2.0452 H       
  53 H53           -2.6727     4.5000    -2.0590 H       
  54 H54            2.4166    -3.7596    -0.5542 H       
  55 H55            3.2914    -2.2095    -0.5550 H       
  56 H56           -0.5884    -2.7057     8.2291 H       
  57 H57           -1.9432    -3.8536     7.9839 H       
  58 H58            2.5266    -5.7991     7.4068 H       
  59 H59            0.6506    -2.8459     3.9327 H       
  60 H60            5.2829    -4.9048     3.4636 H       
  61 H61            3.9491    -6.0710     3.1745 H       
  62 H62            4.9778    -2.4026     5.2287 H       
  63 H63            5.9496    -0.2270     4.6001 H       
  64 H64            5.5367     0.7002     2.3573 H       
  65 H65            4.1602    -0.5344     0.7427 H       
@<TRIPOS>BOND
   1    1    2 1
   2    1    8 2
   3    1    9 am
   4    2    3 ar
   5    2    7 ar
   6    3    4 ar
   7    3   43 1
   8    4    5 ar
   9    4   21 1
  10    5    6 ar
  11    5   44 1
  12    6    7 ar
  13    6   45 1
  14    7   46 1
  15    9   10 1
  16    9   47 1
  17   10   11 1
  18   10   48 1
  19   10   49 1
  20   11   12 ar
  21   11   16 ar
  22   12   13 ar
  23   12   17 1
  24   13   14 ar
  25   13   50 1
  26   14   15 ar
  27   14   51 1
  28   15   16 ar
  29   15   52 1
  30   16   53 1
  31   17   18 1
  32   17   19 1
  33   17   20 1
  34   21   34 1
  35   21   54 1
  36   21   55 1
  37   22   23 1
  38   22   26 1
  39   23   24 1
  40   23   56 1
  41   23   57 1
  42   24   25 1
  43   25   26 ar
  44   25   27 ar
  45   26   30 ar
  46   27   28 ar
  47   27   58 1
  48   28   29 ar
  49   28   31 1
  50   29   30 ar
  51   29   32 1
  52   30   59 1
  53   31   33 1
  54   32   33 1
  55   32   35 1
  56   32   36 1
  57   33   60 1
  58   33   61 1
  59   34   35 am
  60   34   41 1
  61   35   42 2
  62   36   37 ar
  63   36   41 ar
  64   37   38 ar
  65   37   62 1
  66   38   39 ar
  67   38   63 1
  68   39   40 ar
  69   39   64 1
  70   40   41 ar
  71   40   65 1

#	End of record

