#	Name: ASD03092868
#	Creating user name:	WinNT
#	Creation time:	15. 06. 2019 20:33

#	Modifying user name:	WinNT
#	Modification time:	15. 06. 2019 20:33

#	Program:	/corina/corina34_cracker 3.40 0067  02.08.2006

@<TRIPOS>MOLECULE
ASD03092868
  45   48    0    0    0
SMALL
NO_CHARGES


@<TRIPOS>ATOM
   1 C1             0.0241     1.5025     0.1006 C.3     
   2 C2             0.0338    -0.0041     0.0688 C.ar    
   3 C3            -0.0950    -0.6584    -1.1434 C.ar    
   4 C4            -0.0860    -2.0417    -1.1756 C.ar    
   5 C5             0.0547    -2.7341     0.0324 C.ar    
   6 C6             0.0712    -4.2087     0.0553 C.2     
   7 O7             1.0645    -4.8120    -0.3071 O.2     
   8 C8            -1.1106    -4.9491     0.5154 C.2     
   9 C9            -2.2659    -4.4177     1.0125 C.2     
  10 N10           -3.1279    -5.4129     1.3304 N.pl3   
  11 H11           -4.0144    -5.2796     1.7008 H       
  12 C12           -2.5677    -6.6430     1.0523 C.ar    
  13 C13           -3.0241    -7.9493     1.1909 C.ar    
  14 C14           -2.2167    -9.0034     0.8176 C.ar    
  15 Cl15          -2.7925   -10.6318     0.9926 Cl      
  16 C16           -0.9482    -8.7742     0.3027 C.ar    
  17 C17           -0.4790    -7.4866     0.1586 C.ar    
  18 C18           -1.2864    -6.4133     0.5257 C.ar    
  19 C19            0.1805    -1.9981     1.2237 C.ar    
  20 N20            0.3211    -2.6601     2.4296 N.pl3   
  21 C21            0.5673    -1.9005     3.6579 C.3     
  22 C22            0.6808    -2.8508     4.8220 C.ar    
  23 C23           -0.4480    -3.2063     5.5365 C.ar    
  24 C24           -0.3439    -4.0780     6.6043 C.ar    
  25 C25            0.8887    -4.5945     6.9573 C.ar    
  26 C26            2.0173    -4.2397     6.2422 C.ar    
  27 C27            1.9126    -3.3713     5.1718 C.ar    
  28 N28            0.1704    -0.6745     1.1963 N.ar    
  29 H29            1.0426     1.8748    -0.0100 H       
  30 H30           -0.5912     1.8792    -0.7164 H       
  31 H31           -0.3860     1.8432     1.0513 H       
  32 H32           -0.2022    -0.0936    -2.0576 H       
  33 H33           -0.1854    -2.5739    -2.1101 H       
  34 H34           -2.4627    -3.3628     1.1339 H       
  35 H35           -4.0094    -8.1382     1.5908 H       
  36 H36           -0.3262    -9.6086     0.0142 H       
  37 H37            0.5085    -7.3106    -0.2415 H       
  38 H38            0.2568    -3.6274     2.4622 H       
  39 H39            1.4950    -1.3372     3.5569 H       
  40 H40           -0.2592    -1.2113     3.8307 H       
  41 H41           -1.4110    -2.8028     5.2606 H       
  42 H42           -1.2257    -4.3552     7.1629 H       
  43 H43            0.9701    -5.2750     7.7920 H       
  44 H44            2.9804    -4.6429     6.5183 H       
  45 H45            2.7938    -3.0971     4.6107 H       
@<TRIPOS>BOND
   1    1    2 1
   2    1   29 1
   3    1   30 1
   4    1   31 1
   5    2   28 ar
   6    2    3 ar
   7    3    4 ar
   8    3   32 1
   9    4    5 ar
  10    4   33 1
  11    5    6 1
  12    5   19 ar
  13    6    7 2
  14    6    8 1
  15    8   18 1
  16    8    9 2
  17    9   10 1
  18    9   34 1
  19   10   11 1
  20   10   12 1
  21   12   18 ar
  22   12   13 ar
  23   13   14 ar
  24   13   35 1
  25   14   15 1
  26   14   16 ar
  27   16   17 ar
  28   16   36 1
  29   17   18 ar
  30   17   37 1
  31   19   20 1
  32   19   28 ar
  33   20   21 1
  34   20   38 1
  35   21   22 1
  36   21   39 1
  37   21   40 1
  38   22   27 ar
  39   22   23 ar
  40   23   24 ar
  41   23   41 1
  42   24   25 ar
  43   24   42 1
  44   25   26 ar
  45   25   43 1
  46   26   27 ar
  47   26   44 1
  48   27   45 1

#	End of record

