#	Name: ASD06170091
#	Creating user name:	WinNT
#	Creation time:	15. 06. 2019 21:05

#	Modifying user name:	WinNT
#	Modification time:	15. 06. 2019 21:05

#	Program:	/corina/corina34_cracker 3.40 0067  02.08.2006

@<TRIPOS>MOLECULE
ASD06170091
  67   71    0    0    0
SMALL
NO_CHARGES


@<TRIPOS>ATOM
   1 N1            -0.1015     1.3671    -0.3836 N.pl3   
   2 N2            -0.0401     0.0109    -0.0498 N.am    
   3 C3             1.2446    -0.3101     0.2090 C.2     
   4 C4             2.0285     0.9215     0.0247 C.2     
   5 C5             1.1314     1.9069    -0.3385 C.2     
   6 C6             3.4787     1.0731     0.1937 C.2     
   7 O7             4.0030     2.1556     0.0089 O.2     
   8 N8             4.2296     0.0133     0.5535 N.am    
   9 C9            -1.1281    -0.8663     0.0064 C.ar    
  10 C10           -2.0807    -0.8592    -1.0042 C.ar    
  11 C11           -3.1536    -1.7269    -0.9459 C.ar    
  12 C12           -3.2800    -2.6021     0.1172 C.ar    
  13 C13           -2.3335    -2.6114     1.1253 C.ar    
  14 C14           -1.2552    -1.7502     1.0701 C.ar    
  15 O15            1.6711    -1.4031     0.5318 O.2     
  16 C16            1.4745     3.3442    -0.6345 C.3     
  17 C17           -1.3247     2.0920    -0.7364 C.3     
  18 C18           -1.9528     2.6787     0.5294 C.3     
  19 C19           -3.2932     3.3283     0.1796 C.3     
  20 O20           -1.0770     3.6624     1.0838 O.3     
  21 C21            5.6264     0.1121     0.5521 C.ar    
  22 C22            6.2358     1.3434     0.7561 C.ar    
  23 C23            7.6147     1.4399     0.7545 C.ar    
  24 C24            8.3899     0.3050     0.5489 C.ar    
  25 C25            7.7805    -0.9236     0.3449 C.ar    
  26 C26            6.4025    -1.0216     0.3525 C.ar    
  27 O27            9.7466     0.3995     0.5472 O.3     
  28 N28           11.6326     0.9600     4.1723 N.ar    
  29 C29           10.3225     0.9567     4.1035 C.ar    
  30 C30            9.6519     0.7704     2.9005 C.ar    
  31 C31           10.3733     0.5833     1.7353 C.ar    
  32 C32           11.7848     0.5892     1.8218 C.ar    
  33 C33           12.5850     0.4067     0.6858 C.ar    
  34 C34           13.9464     0.4193     0.8098 C.ar    
  35 C35           14.5474     0.6116     2.0562 C.ar    
  36 C36           13.7957     0.7913     3.1761 C.ar    
  37 C37           12.3930     0.7846     3.0853 C.ar    
  38 O38           14.7235     0.2424    -0.2913 O.3     
  39 C39           16.1390     0.2659    -0.0968 C.3     
  40 F40            8.2085     2.6372     0.9524 F       
  41 H41            3.8025    -0.8179     0.8135 H       
  42 H42           -1.9827    -0.1757    -1.8346 H       
  43 H43           -3.8949    -1.7217    -1.7314 H       
  44 H44           -4.1199    -3.2797     0.1604 H       
  45 H45           -2.4352    -3.2959     1.9545 H       
  46 H46           -0.5140    -1.7610     1.8556 H       
  47 H47            1.4171     3.9280     0.2842 H       
  48 H48            2.4854     3.4007    -1.0383 H       
  49 H49            0.7693     3.7434    -1.3634 H       
  50 H50           -1.0825     2.8980    -1.4290 H       
  51 H51           -2.0297     1.4073    -1.2079 H       
  52 H52           -2.1134     1.8836     1.2575 H       
  53 H53           -3.9612     2.5780    -0.2432 H       
  54 H54           -3.7406     3.7463     1.0814 H       
  55 H55           -3.1326     4.1234    -0.5484 H       
  56 H56           -0.8893     4.4016     0.4893 H       
  57 H57            5.6327     2.2250     0.9156 H       
  58 H58            8.3834    -1.8052     0.1847 H       
  59 H59            5.9286    -1.9799     0.1987 H       
  60 H60            9.7490     1.1022     5.0070 H       
  61 H61            8.5722     0.7720     2.8755 H       
  62 H62           12.1289     0.2567    -0.2816 H       
  63 H63           15.6247     0.6174     2.1321 H       
  64 H64           14.2756     0.9384     4.1324 H       
  65 H65           16.4330     1.2303     0.3173 H       
  66 H66           16.4241    -0.5280     0.5935 H       
  67 H67           16.6396     0.1131    -1.0529 H       
@<TRIPOS>BOND
   1    1    2 1
   2    1    5 1
   3    1   17 1
   4    2    3 am
   5    2    9 1
   6    3    4 1
   7    3   15 2
   8    4    5 2
   9    4    6 1
  10    5   16 1
  11    6    7 2
  12    6    8 am
  13    8   21 1
  14    8   41 1
  15    9   10 ar
  16    9   14 ar
  17   10   11 ar
  18   10   42 1
  19   11   12 ar
  20   11   43 1
  21   12   13 ar
  22   12   44 1
  23   13   14 ar
  24   13   45 1
  25   14   46 1
  26   16   47 1
  27   16   48 1
  28   16   49 1
  29   17   18 1
  30   17   50 1
  31   17   51 1
  32   18   19 1
  33   18   20 1
  34   18   52 1
  35   19   53 1
  36   19   54 1
  37   19   55 1
  38   20   56 1
  39   21   22 ar
  40   21   26 ar
  41   22   23 ar
  42   22   57 1
  43   23   24 ar
  44   23   40 1
  45   24   25 ar
  46   24   27 1
  47   25   26 ar
  48   25   58 1
  49   26   59 1
  50   27   31 1
  51   28   29 ar
  52   28   37 ar
  53   29   30 ar
  54   29   60 1
  55   30   31 ar
  56   30   61 1
  57   31   32 ar
  58   32   33 ar
  59   32   37 ar
  60   33   34 ar
  61   33   62 1
  62   34   35 ar
  63   34   38 1
  64   35   36 ar
  65   35   63 1
  66   36   37 ar
  67   36   64 1
  68   38   39 1
  69   39   65 1
  70   39   66 1
  71   39   67 1

#	End of record

