#	Name: ASD03331590
#	Creating user name:	WinNT
#	Creation time:	15. 06. 2019 20:39

#	Modifying user name:	WinNT
#	Modification time:	15. 06. 2019 20:39

#	Program:	/corina/corina34_cracker 3.40 0067  02.08.2006

@<TRIPOS>MOLECULE
ASD03331590
  60   63    0    0    0
SMALL
NO_CHARGES


@<TRIPOS>ATOM
   1 C1             0.0054     0.8342     1.4917 C.ar    
   2 C2             0.0058    -0.5782     1.0520 C.2     
   3 N3            -1.0484    -1.4405     1.1426 N.pl3   
   4 C4            -0.6339    -2.6403     0.6551 C.2     
   5 C5             0.6562    -2.4857     0.2494 C.2     
   6 N6             1.0179    -1.2092     0.5048 N.2     
   7 C7             1.5045    -3.5231    -0.3636 C.2     
   8 O8             1.0612    -4.6406    -0.5478 O.2     
   9 N9             2.7716    -3.2335    -0.7201 N.am    
  10 C10            3.6149    -4.2648    -1.3295 C.3     
  11 C11            5.0651    -3.9412    -1.0779 C.2     
  12 C12           -2.3906    -1.1369     1.6489 C.3     
  13 C13           -3.0253    -2.4189     2.1948 C.3     
  14 C14           -3.7038    -3.1838     1.0604 C.3     
  15 O15           -2.7558    -3.5801     0.0765 O.3     
  16 C16           -1.4633    -3.8966     0.6051 C.3     
  17 C17            3.3565    -4.3099    -2.8369 C.3     
  18 C18            3.6280    -2.9313    -3.4423 C.3     
  19 C19            4.2833    -5.3419    -3.4826 C.3     
  20 C20            1.8999    -4.7015    -3.0931 C.3     
  21 C21            1.2116     1.4918     1.7344 C.ar    
  22 N22            6.0017    -4.9021    -1.2043 N.am    
  23 O23            5.3894    -2.8161    -0.7617 O.2     
  24 C24            7.3970    -4.6144    -0.8625 C.3     
  25 C25            1.2054     2.8108     2.1448 C.ar    
  26 C26            0.0018     3.4800     2.3157 C.ar    
  27 C27           -1.1977     2.8296     2.0759 C.ar    
  28 C28           -1.2013     1.5147     1.6594 C.ar    
  29 F29           -0.0003     4.7699     2.7177 F       
  30 F30            2.3722     3.4497     2.3804 F       
  31 C31            8.2825    -5.7942    -0.4565 C.3     
  32 C32            8.4779    -5.1240    -1.8179 C.3     
  33 H33            3.1251    -2.3423    -0.5732 H       
  34 H34            3.3776    -5.2341    -0.8911 H       
  35 H35           -2.3201    -0.3973     2.4465 H       
  36 H36           -3.0046    -0.7428     0.8391 H       
  37 H37           -2.2524    -3.0441     2.6418 H       
  38 H38           -3.7657    -2.1625     2.9525 H       
  39 H39           -4.1902    -4.0705     1.4669 H       
  40 H40           -4.4554    -2.5447     0.5967 H       
  41 H41           -0.9761    -4.6302    -0.0372 H       
  42 H42           -1.5701    -4.3035     1.6107 H       
  43 H43            4.6658    -2.6522    -3.2598 H       
  44 H44            3.4439    -2.9634    -4.5162 H       
  45 H45            2.9678    -2.1960    -2.9823 H       
  46 H46            4.0929    -6.3233    -3.0481 H       
  47 H47            4.0961    -5.3772    -4.5558 H       
  48 H48            5.3210    -5.0606    -3.3038 H       
  49 H49            1.2396    -3.9663    -2.6331 H       
  50 H50            1.7158    -4.7336    -4.1670 H       
  51 H51            1.7064    -5.6837    -2.6618 H       
  52 H52            2.1483     0.9707     1.6020 H       
  53 H53            5.7520    -5.7840    -1.5216 H       
  54 H54            7.5723    -3.6596    -0.3669 H       
  55 H55           -2.1318     3.3546     2.2107 H       
  56 H56           -2.1373     1.0092     1.4729 H       
  57 H57            9.0407    -5.6154     0.3059 H       
  58 H58            7.8270    -6.7844    -0.4437 H       
  59 H59            8.1509    -5.6733    -2.7008 H       
  60 H60            9.3646    -4.5043    -1.9512 H       
@<TRIPOS>BOND
   1    1    2 1
   2    1   21 ar
   3    1   28 ar
   4    2    3 1
   5    2    6 2
   6    3    4 1
   7    3   12 1
   8    4    5 2
   9    4   16 1
  10    5    6 1
  11    5    7 1
  12    7    8 2
  13    7    9 am
  14    9   10 1
  15    9   33 1
  16   10   11 1
  17   10   17 1
  18   10   34 1
  19   11   22 am
  20   11   23 2
  21   12   13 1
  22   12   35 1
  23   12   36 1
  24   13   14 1
  25   13   37 1
  26   13   38 1
  27   14   15 1
  28   14   39 1
  29   14   40 1
  30   15   16 1
  31   16   41 1
  32   16   42 1
  33   17   18 1
  34   17   19 1
  35   17   20 1
  36   18   43 1
  37   18   44 1
  38   18   45 1
  39   19   46 1
  40   19   47 1
  41   19   48 1
  42   20   49 1
  43   20   50 1
  44   20   51 1
  45   21   25 ar
  46   21   52 1
  47   22   24 1
  48   22   53 1
  49   24   31 1
  50   24   32 1
  51   24   54 1
  52   25   26 ar
  53   25   30 1
  54   26   27 ar
  55   26   29 1
  56   27   28 ar
  57   27   55 1
  58   28   56 1
  59   31   32 1
  60   31   57 1
  61   31   58 1
  62   32   59 1
  63   32   60 1

#	End of record

