#	Name: ASD06600066
#	Creating user name:	WinNT
#	Creation time:	15. 06. 2019 21:07

#	Modifying user name:	WinNT
#	Modification time:	15. 06. 2019 21:07

#	Program:	/corina/corina34_cracker 3.40 0067  02.08.2006

@<TRIPOS>MOLECULE
ASD06600066
 320  320    0    0    0
SMALL
NO_CHARGES


@<TRIPOS>ATOM
   1 C1            -4.1170     2.5336   -10.5891 C.2     
   2 O2            -4.2078     1.4443   -10.0636 O.2     
   3 N3            -1.7190     2.1496   -10.6732 N.3     
   4 C4            -2.8159     2.9603   -11.2185 C.3     
   5 C5            -2.8929     2.7613   -12.7335 C.3     
   6 C6            -1.6217     3.3095   -13.3851 C.3     
   7 C7            -1.6986     3.1105   -14.9002 C.3     
   8 N8            -0.4815     3.6353   -15.5241 N.pl3   
   9 C9            -0.3237     3.5666   -16.8877 C.2     
  10 N10           -1.2027     2.9382   -17.6138 N.2     
  11 N11            0.7679     4.1643   -17.4878 N.am    
  12 C12           -7.5856     3.6852   -10.6605 C.2     
  13 O13           -7.3608     4.4842   -11.5448 O.2     
  14 N14           -5.1812     3.3601   -10.6150 N.am    
  15 C15           -6.4478     2.9428   -10.0084 C.3     
  16 C16           -6.4245     3.2579    -8.5114 C.3     
  17 C17           -5.3498     2.4099    -7.8283 C.3     
  18 C18           -5.3269     2.7202    -6.3538 C.2     
  19 O19           -6.0947     3.5391    -5.8945 O.2     
  20 N20           -4.4534     2.0878    -5.5455 N.am    
  21 C21          -11.1243     4.2544    -9.9414 C.2     
  22 O22          -11.0389     3.7520    -8.8409 O.2     
  23 N23           -8.8532     3.4612   -10.2609 N.am    
  24 C24           -9.9594     4.1829   -10.8948 C.3     
  25 C25          -10.3858     3.4474   -12.1668 C.3     
  26 C26          -14.6727     5.1040   -10.1659 C.2     
  27 O27          -14.6415     5.1535   -11.3773 O.2     
  28 N28          -12.2610     4.8767   -10.3118 N.am    
  29 C29          -13.3934     4.9462    -9.3850 C.3     
  30 C30          -13.2151     6.1446    -8.4507 C.3     
  31 C31          -11.9837     5.9254    -7.5695 C.3     
  32 C32          -11.8080     7.1058    -6.6493 C.2     
  33 O33          -12.5906     8.0313    -6.6939 O.2     
  34 N34          -10.7812     7.1331    -5.7767 N.am    
  35 C35          -18.1328     6.0103    -9.4116 C.2     
  36 O36          -17.8606     6.3263    -8.2728 O.2     
  37 N37          -15.8514     5.1901    -9.5180 N.am    
  38 C38          -17.0949     5.3435   -10.2771 C.3     
  39 C39          -17.6009     3.9662   -10.7108 C.3     
  40 C40          -16.6041     3.3414   -11.6890 C.3     
  41 C41          -17.1101     1.9642   -12.1227 C.3     
  42 N42          -16.1556     1.3659   -13.0593 N.pl3   
  43 C43          -16.3996     0.1203   -13.5876 C.2     
  44 N44          -15.5504    -0.4119   -14.4209 N.2     
  45 N45          -17.5394    -0.5638   -13.2369 N.pl3   
  46 C46          -21.7487     6.5298    -9.5490 C.2     
  47 O47          -21.9042     6.1425   -10.6877 O.2     
  48 N48          -19.3636     6.2555    -9.9030 N.am    
  49 C49          -20.3725     6.9038    -9.0616 C.3     
  50 C50          -20.2001     8.4222    -9.1366 C.3     
  51 C51          -18.8519     8.8130    -8.5278 C.3     
  52 C52          -18.6794    10.3314    -8.6028 C.3     
  53 N53          -17.3885    10.7056    -8.0200 N.pl3   
  54 C54          -17.0114    12.0269    -7.9758 C.2     
  55 N55          -17.8023    12.9467    -8.4526 N.2     
  56 N56          -15.7999    12.3781    -7.4288 N.pl3   
  57 C57          -24.6176     7.3455   -10.1829 C.2     
  58 O58          -23.8184     8.1478   -10.6169 O.2     
  59 N59          -22.8065     6.6259    -8.7195 N.am    
  60 C60          -24.2099     6.3915    -9.0899 C.3     
  61 C61          -25.0644     6.6415    -7.8293 C.3     
  62 C62          -24.1517     7.5519    -6.9658 C.3     
  63 C63          -22.7475     6.9771    -7.2889 C.3     
  64 C64          -27.7595     8.4379   -11.6990 C.2     
  65 O65          -28.4265     7.8647   -10.8639 O.2     
  66 N66          -25.8705     7.3070   -10.6782 N.am    
  67 C67          -26.2669     8.2344   -11.7408 C.3     
  68 C68          -25.8692     7.6536   -13.0992 C.3     
  69 C69          -24.3445     7.5633   -13.1887 C.3     
  70 C70          -23.9528     6.9912   -14.5267 C.2     
  71 O71          -24.8088     6.6857   -15.3297 O.2     
  72 N72          -22.6512     6.8190   -14.8310 N.am    
  73 C73          -30.2939     9.8633   -13.9144 C.2     
  74 O74          -29.5082     9.9780   -14.8312 O.2     
  75 N75          -28.3532     9.2569   -12.5897 N.am    
  76 C76          -29.8042     9.4547   -12.5491 C.3     
  77 C77          -30.1412    10.5515   -11.5370 C.3     
  78 C78          -29.7569    10.0843   -10.1317 C.3     
  79 C79          -30.0939    11.1812    -9.1197 C.3     
  80 N80          -29.7259    10.7339    -7.7740 N.pl3   
  81 C81          -29.9372    11.5578    -6.6939 C.2     
  82 N82          -30.4649    12.7370    -6.8672 N.2     
  83 N83          -29.5918    11.1381    -5.4312 N.pl3   
  84 C84          -33.3664    11.2730   -15.3058 C.2     
  85 O85          -33.8383    11.4734   -14.2066 O.2     
  86 N86          -31.6049    10.1013   -14.1168 N.am    
  87 C87          -32.0810    10.4985   -15.4441 C.3     
  88 C88          -32.3270     9.2494   -16.2926 C.3     
  89 C89          -30.9993     8.5295   -16.5375 C.3     
  90 C90          -31.2417     7.2992   -17.3732 C.2     
  91 O91          -32.3656     7.0250   -17.7372 O.2     
  92 N92          -30.2093     6.5035   -17.7162 N.am    
  93 C93          -36.0373    12.3791   -17.5430 C.2     
  94 O94          -35.6038    11.7310   -18.4719 O.2     
  95 N95          -33.9914    11.7429   -16.4034 N.am    
  96 C96          -35.2410    12.4958   -16.2689 C.3     
  97 C97          -34.9229    13.9679   -15.9993 C.3     
  98 C98          -34.2237    14.0987   -14.6447 C.3     
  99 C99          -33.9057    15.5708   -14.3750 C.3     
 100 C100         -33.2065    15.7016   -13.0204 C.3     
 101 N101         -32.9012    17.1150   -12.7615 N.3     
 102 C102         -38.9231    14.0701   -19.0182 C.2     
 103 O103         -38.9297    14.9274   -18.1603 O.2     
 104 N104         -37.2313    12.9951   -17.6502 N.am    
 105 C105         -38.0055    12.8817   -18.8888 C.3     
 106 C106         -38.8361    11.5973   -18.8552 C.3     
 107 C107         -41.8076    14.9680   -21.0764 C.2     
 108 O108         -41.8065    13.9227   -21.6914 O.2     
 109 N109         -39.7363    14.1803   -20.0873 N.am    
 110 C110         -40.6284    15.3356   -20.2131 C.3     
 111 C111         -39.8692    16.4986   -20.8549 C.3     
 112 C112         -38.7539    16.9603   -19.9148 C.3     
 113 C113         -39.2607    16.0401   -22.1817 C.3     
 114 C114         -43.6235    16.0114   -23.4601 C.2     
 115 O115         -42.5686    16.5780   -23.6526 O.2     
 116 N116         -42.8635    15.8009   -21.1650 N.am    
 117 C117         -43.9620    15.4958   -22.0851 C.3     
 118 C118         -45.2439    16.1681   -21.5896 C.3     
 119 C119         -45.6561    15.5552   -20.2496 C.3     
 120 C120         -46.9381    16.2275   -19.7541 C.3     
 121 N121         -47.3327    15.6406   -18.4711 N.pl3   
 122 C122         -48.4626    16.0888   -17.8288 C.2     
 123 N123         -49.1827    17.0358   -18.3613 N.2     
 124 N124         -48.8330    15.5381   -16.6248 N.pl3   
 125 C125         -44.5509    17.7971   -25.9135 C.2     
 126 O126         -45.0501    18.3566   -24.9660 O.2     
 127 N127         -44.4931    15.8429   -24.4759 N.am    
 128 C128         -44.1641    16.3441   -25.8126 C.3     
 129 C129         -44.9312    15.5381   -26.8626 C.3     
 130 C130         -44.5876    16.0615   -28.2586 C.3     
 131 C131         -44.5386    14.0629   -26.7602 C.3     
 132 O132         -44.3407    18.4698   -27.0559 O.3     
 133 C133           1.6342     4.8835   -16.7471 C.2     
 134 O134           1.5178     4.9173   -15.5406 O.2     
 135 C135          16.4853    16.1414   -14.7742 C.3     
 136 C136          15.3550    15.3676   -14.0928 C.3     
 137 C137          14.5228    14.6420   -15.1520 C.3     
 138 C138          13.3924    13.8682   -14.4705 C.3     
 139 C139          12.5603    13.1426   -15.5297 C.3     
 140 C140          11.4299    12.3688   -14.8482 C.3     
 141 C141          10.5977    11.6432   -15.9074 C.3     
 142 C142           9.4674    10.8694   -15.2259 C.3     
 143 C143           8.6352    10.1438   -16.2851 C.3     
 144 C144           7.5048     9.3700   -15.6037 C.3     
 145 C145           6.6726     8.6444   -16.6629 C.3     
 146 C146           5.5423     7.8706   -15.9814 C.3     
 147 C147           4.7101     7.1450   -17.0406 C.3     
 148 C148           3.5797     6.3712   -16.3591 C.3     
 149 C149           2.7476     5.6457   -17.4183 C.3     
 150 H150          -1.6060     2.3127    -9.6839 H       
 151 H151          -1.8644     1.1695   -10.8638 H       
 152 H152          -2.6340     4.0124   -10.9990 H       
 153 H153          -2.9859     1.6983   -12.9561 H       
 154 H154          -3.7603     3.2920   -13.1261 H       
 155 H155          -1.5287     4.3725   -13.1626 H       
 156 H156          -0.7543     2.7788   -12.9926 H       
 157 H157          -1.7916     2.0475   -15.1227 H       
 158 H158          -2.5660     3.6411   -15.2928 H       
 159 H159           0.2130     4.0314   -14.9748 H       
 160 H160          -1.1313     2.9513   -18.5811 H       
 161 H161           0.9107     4.0663   -18.4422 H       
 162 H162          -5.1085     4.2313   -11.0353 H       
 163 H163          -6.5836     1.8709   -10.1520 H       
 164 H164          -6.2003     4.3147    -8.3660 H       
 165 H165          -7.3979     3.0299    -8.0770 H       
 166 H166          -5.5740     1.3531    -7.9738 H       
 167 H167          -4.3765     2.6379    -8.2628 H       
 168 H168          -3.8393     1.4329    -5.9129 H       
 169 H169          -4.4386     2.2876    -4.5964 H       
 170 H170          -9.0330     2.8222    -9.5537 H       
 171 H171          -9.6360     5.1922   -11.1497 H       
 172 H172         -10.7091     2.4382   -11.9119 H       
 173 H173         -11.2088     3.9844   -12.6384 H       
 174 H174          -9.5432     3.3957   -12.8564 H       
 175 H175         -12.3293     5.2785   -11.1920 H       
 176 H176         -13.4379     4.0299    -8.7962 H       
 177 H177         -13.0817     7.0501    -9.0427 H       
 178 H178         -14.0986     6.2490    -7.8210 H       
 179 H179         -12.1171     5.0199    -6.9775 H       
 180 H180         -11.1002     5.8210    -8.1992 H       
 181 H181         -10.1553     6.3930    -5.7410 H       
 182 H182         -10.6681     7.8929    -5.1844 H       
 183 H183         -15.8763     5.1504    -8.5492 H       
 184 H184         -16.9090     5.9565   -11.1590 H       
 185 H185         -17.7023     3.3243    -9.8358 H       
 186 H186         -18.5702     4.0721   -11.1980 H       
 187 H187         -16.5027     3.9834   -12.5640 H       
 188 H188         -15.6348     3.2355   -11.2018 H       
 189 H189         -17.2114     1.3222   -11.2476 H       
 190 H190         -18.0794     2.0701   -12.6098 H       
 191 H191         -15.3514     1.8486   -13.3067 H       
 192 H192         -15.7226    -1.2908   -14.7936 H       
 193 H193         -18.1714    -0.1677   -12.6168 H       
 194 H194         -17.7116    -1.4426   -13.6097 H       
 195 H195         -19.5813     6.0028   -10.8139 H       
 196 H196         -20.2508     6.5748    -8.0296 H       
 197 H197         -20.2343     8.7407   -10.1785 H       
 198 H198         -21.0034     8.9069    -8.5819 H       
 199 H199         -18.8177     8.4944    -7.4860 H       
 200 H200         -18.0485     8.3282    -9.0826 H       
 201 H201         -18.7137    10.6499    -9.6447 H       
 202 H202         -19.4828    10.8161    -8.0481 H       
 203 H203         -16.7999    10.0211    -7.6651 H       
 204 H204         -17.5362    13.8790    -8.4215 H       
 205 H205         -15.2113    11.6936    -7.0740 H       
 206 H206         -15.5338    13.3104    -7.3977 H       
 207 H207         -24.3371     5.3634    -9.4288 H       
 208 H208         -25.9900     7.1564    -8.0867 H       
 209 H209         -25.2737     5.7046    -7.3132 H       
 210 H210         -24.2322     8.5935    -7.2768 H       
 211 H211         -24.3820     7.4433    -5.9059 H       
 212 H212         -22.5511     6.0891    -6.6881 H       
 213 H213         -21.9801     7.7313    -7.1148 H       
 214 H214         -26.5098     6.6653   -10.3311 H       
 215 H215         -25.7655     9.1910   -11.5939 H       
 216 H216         -26.2991     6.6579   -13.2086 H       
 217 H217         -26.2422     8.2997   -13.8939 H       
 218 H218         -23.9145     8.5589   -13.0794 H       
 219 H219         -23.9715     6.9172   -12.3940 H       
 220 H220         -21.9665     7.0633   -14.1888 H       
 221 H221         -22.3990     6.4507   -15.6923 H       
 222 H222         -27.8197     9.7153   -13.2576 H       
 223 H223         -30.2895     8.5249   -12.2523 H       
 224 H224         -29.5859    11.4565   -11.7836 H       
 225 H225         -31.2104    10.7608   -11.5706 H       
 226 H226         -30.3122     9.1794    -9.8851 H       
 227 H227         -28.6877     9.8751   -10.0981 H       
 228 H228         -29.5386    12.0862    -9.3662 H       
 229 H229         -31.1631    11.3905    -9.1532 H       
 230 H230         -29.3332     9.8563    -7.6451 H       
 231 H231         -30.6139    13.3184    -6.1051 H       
 232 H232         -29.1991    10.2605    -5.3022 H       
 233 H233         -29.7409    11.7194    -4.6691 H       
 234 H234         -32.2333    10.0096   -13.3835 H       
 235 H235         -31.3302    11.1239   -15.9272 H       
 236 H236         -33.0105     8.5822   -15.7674 H       
 237 H237         -32.7647     9.5394   -17.2478 H       
 238 H238         -30.3158     9.1967   -17.0627 H       
 239 H239         -30.5617     8.2395   -15.5822 H       
 240 H240         -29.3104     6.7227   -17.4252 H       
 241 H241         -30.3653     5.7115   -18.2542 H       
 242 H242         -33.6140    11.5826   -17.2825 H       
 243 H243         -35.8212    12.0916   -15.4395 H       
 244 H244         -34.2688    14.3479   -16.7840 H       
 245 H245         -35.8486    14.5433   -15.9874 H       
 246 H246         -34.8778    13.7186   -13.8599 H       
 247 H247         -33.2981    13.5233   -14.6565 H       
 248 H248         -33.2516    15.9509   -15.1597 H       
 249 H249         -34.8313    16.1462   -14.3632 H       
 250 H250         -33.8606    15.3216   -12.2357 H       
 251 H251         -32.2809    15.1262   -13.0322 H       
 252 H252         -32.4386    17.2279   -11.8719 H       
 253 H253         -32.3489    17.5084   -13.5087 H       
 254 H254         -37.5780    13.5135   -16.9073 H       
 255 H255         -37.3260    12.8529   -19.7406 H       
 256 H256         -39.5156    11.6262   -18.0034 H       
 257 H257         -39.4121    11.5129   -19.7768 H       
 258 H258         -38.1724    10.7377   -18.7616 H       
 259 H259         -39.7310    13.4947   -20.7734 H       
 260 H260         -40.9800    15.6325   -19.2250 H       
 261 H261         -40.5565    17.3249   -21.0367 H       
 262 H262         -38.0519    16.1420   -19.7545 H       
 263 H263         -38.2303    17.8062   -20.3602 H       
 264 H264         -39.1849    17.2616   -18.9601 H       
 265 H265         -40.0553    15.7112   -22.8514 H       
 266 H266         -38.7199    16.8686   -22.6390 H       
 267 H267         -38.5734    15.2138   -21.9999 H       
 268 H268         -42.8961    16.6025   -20.6197 H       
 269 H269         -44.1108    14.4168   -22.1281 H       
 270 H270         -45.0680    17.2362   -21.4618 H       
 271 H271         -46.0395    16.0155   -22.3189 H       
 272 H272         -45.8320    14.4871   -20.3774 H       
 273 H273         -44.8606    15.7077   -19.5203 H       
 274 H274         -46.7622    17.2956   -19.6264 H       
 275 H275         -47.7336    16.0749   -20.4835 H       
 276 H276         -46.7968    14.9359   -18.0748 H       
 277 H277         -49.9799    17.3520   -17.9081 H       
 278 H278         -48.2971    14.8333   -16.2285 H       
 279 H279         -49.6302    15.8543   -16.1716 H       
 280 H280         -45.3368    15.3897   -24.3219 H       
 281 H281         -43.0930    16.2404   -25.9860 H       
 282 H282         -46.0023    15.6418   -26.6891 H       
 283 H283         -43.5165    15.9578   -28.4321 H       
 284 H284         -45.1342    15.4873   -29.0067 H       
 285 H285         -44.8674    17.1125   -28.3316 H       
 286 H286         -44.7834    13.6899   -25.7657 H       
 287 H287         -45.0851    13.4886   -27.5083 H       
 288 H288         -43.4675    13.9591   -26.9337 H       
 289 H289         -44.6052    19.3998   -27.0727 H       
 290 H290          17.1215    15.4471   -15.3232 H       
 291 H291          16.0616    16.8700   -15.4653 H       
 292 H292          17.0782    16.6583   -14.0197 H       
 293 H293          15.7787    14.6389   -13.4017 H       
 294 H294          14.7189    16.0619   -13.5438 H       
 295 H295          14.0991    15.3707   -15.8431 H       
 296 H296          15.1589    13.9477   -15.7010 H       
 297 H297          13.8161    13.1395   -13.7794 H       
 298 H298          12.7563    14.5625   -13.9215 H       
 299 H299          12.1366    13.8713   -16.2208 H       
 300 H300          13.1964    12.4483   -16.0787 H       
 301 H301          11.8536    11.6401   -14.1571 H       
 302 H302          10.7938    13.0631   -14.2992 H       
 303 H303          10.1740    12.3719   -16.5985 H       
 304 H304          11.2338    10.9489   -16.4564 H       
 305 H305           9.8911    10.1407   -14.5348 H       
 306 H306           8.8312    11.5637   -14.6769 H       
 307 H307           8.2115    10.8725   -16.9762 H       
 308 H308           9.2713     9.4495   -16.8341 H       
 309 H309           7.9285     8.6413   -14.9126 H       
 310 H310           6.8687    10.0643   -15.0547 H       
 311 H311           6.2489     9.3731   -17.3540 H       
 312 H312           7.3088     7.9501   -17.2119 H       
 313 H313           5.9660     7.1419   -15.2903 H       
 314 H314           4.9062     8.5649   -15.4324 H       
 315 H315           4.2864     7.8737   -17.7317 H       
 316 H316           5.3462     6.4507   -17.5896 H       
 317 H317           4.0034     5.6426   -15.6680 H       
 318 H318           2.9436     7.0655   -15.8101 H       
 319 H319           3.3837     4.9514   -17.9673 H       
 320 H320           2.3239     6.3743   -18.1094 H       
@<TRIPOS>BOND
   1    1    2 2
   2    1    4 1
   3    1   14 am
   4    3    4 1
   5    3  150 1
   6    3  151 1
   7    4    5 1
   8    4  152 1
   9    5    6 1
  10    5  153 1
  11    5  154 1
  12    6    7 1
  13    6  155 1
  14    6  156 1
  15    7    8 1
  16    7  157 1
  17    7  158 1
  18    8    9 1
  19    8  159 1
  20    9   10 2
  21    9   11 1
  22   10  160 1
  23   11  133 am
  24   11  161 1
  25   12   13 2
  26   12   15 1
  27   12   23 am
  28   14   15 1
  29   14  162 1
  30   15   16 1
  31   15  163 1
  32   16   17 1
  33   16  164 1
  34   16  165 1
  35   17   18 1
  36   17  166 1
  37   17  167 1
  38   18   19 2
  39   18   20 am
  40   20  168 1
  41   20  169 1
  42   21   22 2
  43   21   24 1
  44   21   28 am
  45   23   24 1
  46   23  170 1
  47   24   25 1
  48   24  171 1
  49   25  172 1
  50   25  173 1
  51   25  174 1
  52   26   27 2
  53   26   29 1
  54   26   37 am
  55   28   29 1
  56   28  175 1
  57   29   30 1
  58   29  176 1
  59   30   31 1
  60   30  177 1
  61   30  178 1
  62   31   32 1
  63   31  179 1
  64   31  180 1
  65   32   33 2
  66   32   34 am
  67   34  181 1
  68   34  182 1
  69   35   36 2
  70   35   38 1
  71   35   48 am
  72   37   38 1
  73   37  183 1
  74   38   39 1
  75   38  184 1
  76   39   40 1
  77   39  185 1
  78   39  186 1
  79   40   41 1
  80   40  187 1
  81   40  188 1
  82   41   42 1
  83   41  189 1
  84   41  190 1
  85   42   43 1
  86   42  191 1
  87   43   44 2
  88   43   45 1
  89   44  192 1
  90   45  193 1
  91   45  194 1
  92   46   47 2
  93   46   49 1
  94   46   59 am
  95   48   49 1
  96   48  195 1
  97   49   50 1
  98   49  196 1
  99   50   51 1
 100   50  197 1
 101   50  198 1
 102   51   52 1
 103   51  199 1
 104   51  200 1
 105   52   53 1
 106   52  201 1
 107   52  202 1
 108   53   54 1
 109   53  203 1
 110   54   55 2
 111   54   56 1
 112   55  204 1
 113   56  205 1
 114   56  206 1
 115   57   58 2
 116   57   66 am
 117   57   60 1
 118   59   60 1
 119   59   63 1
 120   60   61 1
 121   60  207 1
 122   61   62 1
 123   61  208 1
 124   61  209 1
 125   62   63 1
 126   62  210 1
 127   62  211 1
 128   63  212 1
 129   63  213 1
 130   64   65 2
 131   64   67 1
 132   64   75 am
 133   66   67 1
 134   66  214 1
 135   67   68 1
 136   67  215 1
 137   68   69 1
 138   68  216 1
 139   68  217 1
 140   69   70 1
 141   69  218 1
 142   69  219 1
 143   70   71 2
 144   70   72 am
 145   72  220 1
 146   72  221 1
 147   73   74 2
 148   73   76 1
 149   73   86 am
 150   75   76 1
 151   75  222 1
 152   76   77 1
 153   76  223 1
 154   77   78 1
 155   77  224 1
 156   77  225 1
 157   78   79 1
 158   78  226 1
 159   78  227 1
 160   79   80 1
 161   79  228 1
 162   79  229 1
 163   80   81 1
 164   80  230 1
 165   81   82 2
 166   81   83 1
 167   82  231 1
 168   83  232 1
 169   83  233 1
 170   84   85 2
 171   84   87 1
 172   84   95 am
 173   86   87 1
 174   86  234 1
 175   87   88 1
 176   87  235 1
 177   88   89 1
 178   88  236 1
 179   88  237 1
 180   89   90 1
 181   89  238 1
 182   89  239 1
 183   90   91 2
 184   90   92 am
 185   92  240 1
 186   92  241 1
 187   93   94 2
 188   93   96 1
 189   93  104 am
 190   95   96 1
 191   95  242 1
 192   96   97 1
 193   96  243 1
 194   97   98 1
 195   97  244 1
 196   97  245 1
 197   98   99 1
 198   98  246 1
 199   98  247 1
 200   99  100 1
 201   99  248 1
 202   99  249 1
 203  100  101 1
 204  100  250 1
 205  100  251 1
 206  101  252 1
 207  101  253 1
 208  102  103 2
 209  102  105 1
 210  102  109 am
 211  104  105 1
 212  104  254 1
 213  105  106 1
 214  105  255 1
 215  106  256 1
 216  106  257 1
 217  106  258 1
 218  107  108 2
 219  107  110 1
 220  107  116 am
 221  109  110 1
 222  109  259 1
 223  110  111 1
 224  110  260 1
 225  111  112 1
 226  111  113 1
 227  111  261 1
 228  112  262 1
 229  112  263 1
 230  112  264 1
 231  113  265 1
 232  113  266 1
 233  113  267 1
 234  114  115 2
 235  114  117 1
 236  114  127 am
 237  116  117 1
 238  116  268 1
 239  117  118 1
 240  117  269 1
 241  118  119 1
 242  118  270 1
 243  118  271 1
 244  119  120 1
 245  119  272 1
 246  119  273 1
 247  120  121 1
 248  120  274 1
 249  120  275 1
 250  121  122 1
 251  121  276 1
 252  122  123 2
 253  122  124 1
 254  123  277 1
 255  124  278 1
 256  124  279 1
 257  125  126 2
 258  125  128 1
 259  125  132 1
 260  127  128 1
 261  127  280 1
 262  128  129 1
 263  128  281 1
 264  129  130 1
 265  129  131 1
 266  129  282 1
 267  130  283 1
 268  130  284 1
 269  130  285 1
 270  131  286 1
 271  131  287 1
 272  131  288 1
 273  132  289 1
 274  133  134 2
 275  133  149 1
 276  135  136 1
 277  135  290 1
 278  135  291 1
 279  135  292 1
 280  136  137 1
 281  136  293 1
 282  136  294 1
 283  137  138 1
 284  137  295 1
 285  137  296 1
 286  138  139 1
 287  138  297 1
 288  138  298 1
 289  139  140 1
 290  139  299 1
 291  139  300 1
 292  140  141 1
 293  140  301 1
 294  140  302 1
 295  141  142 1
 296  141  303 1
 297  141  304 1
 298  142  143 1
 299  142  305 1
 300  142  306 1
 301  143  144 1
 302  143  307 1
 303  143  308 1
 304  144  145 1
 305  144  309 1
 306  144  310 1
 307  145  146 1
 308  145  311 1
 309  145  312 1
 310  146  147 1
 311  146  313 1
 312  146  314 1
 313  147  148 1
 314  147  315 1
 315  147  316 1
 316  148  149 1
 317  148  317 1
 318  148  318 1
 319  149  319 1
 320  149  320 1

#	End of record

