#	Name: ASD05720282
#	Creating user name:	WinNT
#	Creation time:	15. 06. 2019 21:02

#	Modifying user name:	WinNT
#	Modification time:	15. 06. 2019 21:02

#	Program:	/corina/corina34_cracker 3.40 0067  02.08.2006

@<TRIPOS>MOLECULE
ASD05720282
  60   64    0    0    0
SMALL
NO_CHARGES


@<TRIPOS>ATOM
   1 C1             0.5119     1.0237     1.1164 C.2     
   2 N2             0.4122    -0.2391     0.6808 N.am    
   3 C3             1.6580    -0.6134    -0.0049 C.3     
   4 C4             2.5297     0.6535     0.0955 C.3     
   5 N5             1.6824     1.6071     0.8270 N.am    
   6 O6            -0.3811     1.5906     1.7157 O.2     
   7 C7             1.3817    -0.9606    -1.4691 C.3     
   8 C8             0.5224    -2.2245    -1.5401 C.3     
   9 C9             0.6397     0.1988    -2.1369 C.3     
  10 C10            2.0587     2.9775     1.1828 C.3     
  11 C11            2.7352     2.9807     2.5551 C.3     
  12 C12            3.1282     4.4119     2.9266 C.3     
  13 O13            3.8625     4.4012     4.1525 O.3     
  14 O14            1.8298     2.4661     3.5336 O.3     
  15 C15           -1.6778    -3.1433     0.6617 C.2     
  16 N16           -0.6243    -2.3357     0.5053 N.2     
  17 C17           -0.6921    -1.0636     0.8499 C.2     
  18 C18           -1.8851    -0.5415     1.3900 C.2     
  19 C19           -2.9530    -1.3558     1.5497 C.2     
  20 N20           -2.8523    -2.6692     1.1834 N.pl3   
  21 N21           -3.7636    -3.7303     1.2267 N.2     
  22 C22           -3.1914    -4.8116     0.7573 C.2     
  23 C23           -1.8788    -4.5014     0.3811 C.2     
  24 C24           -0.8882    -5.4341    -0.2016 C.ar    
  25 C25           -0.6489    -6.6680     0.4062 C.ar    
  26 C26            0.2725    -7.5353    -0.1368 C.ar    
  27 C27            0.9670    -7.1812    -1.2934 C.ar    
  28 C28            0.7285    -5.9487    -1.9011 C.ar    
  29 C29           -0.1968    -5.0827    -1.3625 C.ar    
  30 N30            3.4781    -9.0331    -3.1490 N.pl3   
  31 N31            2.6749    -7.8969    -2.9593 N.2     
  32 C32            1.9599    -8.1156    -1.8770 C.2     
  33 N33            2.2776    -9.3227    -1.3893 N.2     
  34 C34            3.1866    -9.8797    -2.1451 C.2     
  35 H35            2.1383    -1.4495     0.5036 H       
  36 H36            3.4427     0.4464     0.6537 H       
  37 H37            2.7656     1.0352    -0.8979 H       
  38 H38            2.3257    -1.1336    -1.9859 H       
  39 H39            0.5093    -2.5979    -2.5641 H       
  40 H40            0.9403    -2.9855    -0.8812 H       
  41 H41           -0.4947    -1.9904    -1.2258 H       
  42 H42            1.2519     1.0992    -2.0863 H       
  43 H43            0.4428    -0.0485    -3.1801 H       
  44 H44           -0.3043     0.3718    -1.6201 H       
  45 H45            2.7493     3.3700     0.4364 H       
  46 H46            1.1662     3.6023     1.2162 H       
  47 H47            3.6277     2.3559     2.5217 H       
  48 H48            3.7473     4.8356     2.1359 H       
  49 H49            2.2289     5.0160     3.0470 H       
  50 H50            4.1448     5.2771     4.4495 H       
  51 H51            1.0113     2.9740     3.6178 H       
  52 H52           -1.9455     0.4988     1.6739 H       
  53 H53           -3.8748    -0.9730     1.9622 H       
  54 H54           -3.6570    -5.7823     0.6714 H       
  55 H55           -1.1861    -6.9420     1.3021 H       
  56 H56            0.4577    -8.4899     0.3333 H       
  57 H57            1.2666    -5.6751    -2.7966 H       
  58 H58           -0.3844    -4.1301    -1.8354 H       
  59 H59            4.1151    -9.1803    -3.8656 H       
  60 H60            3.6281   -10.8531    -1.9903 H       
@<TRIPOS>BOND
   1    1    2 am
   2    1    5 am
   3    1    6 2
   4    2    3 1
   5    2   17 1
   6    3    4 1
   7    3    7 1
   8    3   35 1
   9    4    5 1
  10    4   36 1
  11    4   37 1
  12    5   10 1
  13    7    8 1
  14    7    9 1
  15    7   38 1
  16    8   39 1
  17    8   40 1
  18    8   41 1
  19    9   42 1
  20    9   43 1
  21    9   44 1
  22   10   11 1
  23   10   45 1
  24   10   46 1
  25   11   12 1
  26   11   14 1
  27   11   47 1
  28   12   13 1
  29   12   48 1
  30   12   49 1
  31   13   50 1
  32   14   51 1
  33   15   16 1
  34   15   20 1
  35   15   23 2
  36   16   17 2
  37   17   18 1
  38   18   19 2
  39   18   52 1
  40   19   20 1
  41   19   53 1
  42   20   21 1
  43   21   22 2
  44   22   23 1
  45   22   54 1
  46   23   24 1
  47   24   25 ar
  48   24   29 ar
  49   25   26 ar
  50   25   55 1
  51   26   27 ar
  52   26   56 1
  53   27   28 ar
  54   27   32 1
  55   28   29 ar
  56   28   57 1
  57   29   58 1
  58   30   31 1
  59   30   34 1
  60   30   59 1
  61   31   32 2
  62   32   33 1
  63   33   34 2
  64   34   60 1

#	End of record

