#	Name: ASD05430259
#	Creating user name:	WinNT
#	Creation time:	15. 06. 2019 21:00

#	Modifying user name:	WinNT
#	Modification time:	15. 06. 2019 21:00

#	Program:	/corina/corina34_cracker 3.40 0067  02.08.2006

@<TRIPOS>MOLECULE
ASD05430259
  76   82    0    0    0
SMALL
NO_CHARGES


@<TRIPOS>ATOM
   1 C1            -1.4382    -2.4502     3.6804 C.ar    
   2 C2            -1.8084    -1.1221     3.8760 C.ar    
   3 C3            -0.8895    -0.1088     3.6470 C.ar    
   4 C4             0.3897    -0.4187     3.2259 C.ar    
   5 C5             0.7568    -1.7376     3.0314 C.ar    
   6 C6            -0.1534    -2.7528     3.2580 C.ar    
   7 C7             3.0271    -1.8934     4.9078 C.3     
   8 C8             3.1671    -1.3689     3.4747 C.3     
   9 C9             2.1530    -2.0690     2.5711 C.3     
  10 C10            1.7111    -1.3938     5.5065 C.3     
  11 C11            1.6918     0.1268     5.6962 C.3     
  12 N12            2.1437     0.7487     4.4521 N.pl3   
  13 C13            2.8977     0.1194     3.4774 C.2     
  14 N14            3.3294     0.9758     2.6213 N.2     
  15 N15           -3.1085    -0.8096     4.3033 N.pl3   
  16 C16           -3.4480    -0.0776     5.4112 C.2     
  17 C17           -4.7932    -0.0212     5.4444 C.2     
  18 N18           -5.2667    -0.6986     4.3882 N.2     
  19 C19           -4.2670    -1.1706     3.6938 C.2     
  20 C20           -5.6229     0.6814     6.4880 C.3     
  21 C21            1.8935     2.1120     3.9735 C.3     
  22 O22            2.9091     2.2876     2.9639 O.3     
  23 C23            0.5167     2.2219     3.3705 C.ar    
  24 O24           -2.3331    -3.4478     3.9087 O.3     
  25 C25            2.0736     3.1254     5.1054 C.3     
  26 C26           -0.4730     2.9064     4.0498 C.ar    
  27 C27           -0.9154     1.7381     1.6322 C.ar    
  28 N28            0.2729     1.6681     2.1988 N.ar    
  29 C29           -1.9583     2.4024     2.2554 C.ar    
  30 F30           -3.1739     2.4703     1.6697 F       
  31 C31           -1.8834    -4.7860     3.6871 C.3     
  32 C32           -1.7365     3.0024     3.4876 C.ar    
  33 C33            2.3684    -3.5848     2.6423 C.3     
  34 C34            4.5862    -1.6281     2.9705 C.3     
  35 C35            4.8917    -3.1273     3.0568 C.3     
  36 C36            3.8140    -3.8812     2.3096 C.2     
  37 O37            4.1004    -4.6991     1.4686 O.2     
  38 O38            4.6957    -1.1968     1.6126 O.3     
  39 C39            6.0037    -0.7519     1.2477 C.3     
  40 O40            0.5527    -1.8948     4.8336 O.3     
  41 C41           -0.0989    -1.9757     6.1086 C.3     
  42 C42            1.2789    -2.1652     6.7561 C.3     
  43 H43           -1.1737     0.9222     3.7974 H       
  44 H44            1.1043     0.3713     3.0480 H       
  45 H45            0.1365    -3.7819     3.1055 H       
  46 H46            3.0313    -2.9834     4.8980 H       
  47 H47            3.8607    -1.5321     5.5101 H       
  48 H48            2.2870    -1.7305     1.5437 H       
  49 H49            0.6782     0.4559     5.9248 H       
  50 H50            2.3614     0.4042     6.5103 H       
  51 H51           -2.7674     0.3680     6.1216 H       
  52 H52           -4.3480    -1.7561     2.7900 H       
  53 H53           -5.8008     1.7111     6.1779 H       
  54 H54           -6.5767     0.1661     6.6012 H       
  55 H55           -5.0913     0.6751     7.4395 H       
  56 H56            3.0934     3.0678     5.4859 H       
  57 H57            1.8830     4.1299     4.7276 H       
  58 H58            1.3726     2.9006     5.9093 H       
  59 H59           -0.2648     3.3608     5.0072 H       
  60 H60           -1.0772     1.2724     0.6712 H       
  61 H61           -2.6931    -5.4822     3.9056 H       
  62 H62           -1.5778    -4.8990     2.6470 H       
  63 H63           -1.0364    -4.9974     4.3397 H       
  64 H64           -2.5294     3.5310     3.9960 H       
  65 H65            2.1440    -3.9396     3.6482 H       
  66 H66            1.7178    -4.0812     1.9224 H       
  67 H67            5.2970    -1.0763     3.5857 H       
  68 H68            5.8619    -3.3300     2.6031 H       
  69 H69            4.9003    -3.4398     4.1010 H       
  70 H70            6.7157    -1.5657     1.3850 H       
  71 H71            6.0036    -0.4417     0.2027 H       
  72 H72            6.2895     0.0910     1.8769 H       
  73 H73           -0.5911    -1.0486     6.4025 H       
  74 H74           -0.7472    -2.8462     6.2086 H       
  75 H75            1.6243    -3.1984     6.7931 H       
  76 H76            1.4178    -1.6254     7.6928 H       
@<TRIPOS>BOND
   1    1    2 ar
   2    1    6 ar
   3    1   24 1
   4    2    3 ar
   5    2   15 1
   6    3    4 ar
   7    3   43 1
   8    4    5 ar
   9    4   44 1
  10    5    6 ar
  11    5    9 1
  12    6   45 1
  13    7    8 1
  14    7   10 1
  15    7   46 1
  16    7   47 1
  17    8    9 1
  18    8   34 1
  19    8   13 1
  20    9   33 1
  21    9   48 1
  22   10   11 1
  23   10   40 1
  24   10   42 1
  25   11   12 1
  26   11   49 1
  27   11   50 1
  28   12   13 1
  29   12   21 1
  30   13   14 2
  31   14   22 1
  32   15   16 1
  33   15   19 1
  34   16   17 2
  35   16   51 1
  36   17   18 1
  37   17   20 1
  38   18   19 2
  39   19   52 1
  40   20   53 1
  41   20   54 1
  42   20   55 1
  43   21   22 1
  44   21   23 1
  45   21   25 1
  46   23   26 ar
  47   23   28 ar
  48   24   31 1
  49   25   56 1
  50   25   57 1
  51   25   58 1
  52   26   32 ar
  53   26   59 1
  54   27   28 ar
  55   27   29 ar
  56   27   60 1
  57   29   30 1
  58   29   32 ar
  59   31   61 1
  60   31   62 1
  61   31   63 1
  62   32   64 1
  63   33   36 1
  64   33   65 1
  65   33   66 1
  66   34   35 1
  67   34   38 1
  68   34   67 1
  69   35   36 1
  70   35   68 1
  71   35   69 1
  72   36   37 2
  73   38   39 1
  74   39   70 1
  75   39   71 1
  76   39   72 1
  77   40   41 1
  78   41   42 1
  79   41   73 1
  80   41   74 1
  81   42   75 1
  82   42   76 1

#	End of record

