#	Name: ASD01911686
#	Creating user name:	WinNT
#	Creation time:	15. 06. 2019 19:58

#	Modifying user name:	WinNT
#	Modification time:	15. 06. 2019 19:58

#	Program:	/corina/corina34_cracker 3.40 0067  02.08.2006

@<TRIPOS>MOLECULE
ASD01911686
  38   41    0    0    0
SMALL
NO_CHARGES


@<TRIPOS>ATOM
   1 N1            -0.0162     1.3436     0.0094 N.am    
   2 C2             0.0021    -0.0041     0.0020 C.2     
   3 C3            -1.2566    -0.7538     0.0100 C.2     
   4 C4            -1.3813    -2.1170     0.0039 C.2     
   5 S5            -2.8763    -0.0590     0.0369 S.3     
   6 C6            -3.5692    -1.6782     0.0304 C.2     
   7 N7            -2.6048    -2.5646     0.0139 N.2     
   8 C8            -4.9692    -1.9790     0.0455 C.1     
   9 C9            -6.1169    -2.2256     0.0579 C.1     
  10 C10           -7.5169    -2.5264     0.0731 C.ar    
  11 C11           -7.9500    -3.8558     0.0660 C.ar    
  12 C12           -9.2998    -4.1374     0.0811 C.ar    
  13 C13          -10.2249    -3.1083     0.1029 C.ar    
  14 C14           -9.8039    -1.7899     0.1101 C.ar    
  15 C15           -8.4575    -1.4922     0.1010 C.ar    
  16 O16            1.0643    -0.5982    -0.0113 O.2     
  17 C17            1.1679     2.2502     0.0030 C.3     
  18 C18           -1.2136     2.2097     0.0190 C.3     
  19 C19           -0.6639     3.6700     0.0013 C.3     
  20 C20            1.1788     2.8950     1.4225 C.3     
  21 C21           -0.0415     3.8549     1.4206 C.3     
  22 C22            0.6301     3.4463    -0.8583 C.3     
  23 H23           -0.5253    -2.7754    -0.0088 H       
  24 H24           -7.2293    -4.6600     0.0482 H       
  25 H25           -9.6360    -5.1638     0.0756 H       
  26 H26          -11.2807    -3.3351     0.1140 H       
  27 H27          -10.5318    -0.9921     0.1268 H       
  28 H28           -8.1305    -0.4630     0.1065 H       
  29 H29            2.1067     1.7996    -0.3193 H       
  30 H30           -1.8216     2.0239    -0.8664 H       
  31 H31           -1.7979     2.0367     0.9228 H       
  32 H32           -1.3510     4.4431    -0.3428 H       
  33 H33            1.0570     2.1298     2.1891 H       
  34 H34            2.1034     3.4501     1.5812 H       
  35 H35            0.2837     4.8860     1.5598 H       
  36 H36           -0.7525     3.5699     2.1960 H       
  37 H37            1.2979     4.3073    -0.8299 H       
  38 H38            0.3970     3.1461    -1.8799 H       
@<TRIPOS>BOND
   1    1    2 am
   2    1   17 1
   3    1   18 1
   4    2    3 1
   5    2   16 2
   6    3    4 2
   7    3    5 1
   8    4    7 1
   9    4   23 1
  10    5    6 1
  11    6    7 2
  12    6    8 1
  13    8    9 3
  14    9   10 1
  15   10   11 ar
  16   10   15 ar
  17   11   12 ar
  18   11   24 1
  19   12   13 ar
  20   12   25 1
  21   13   14 ar
  22   13   26 1
  23   14   15 ar
  24   14   27 1
  25   15   28 1
  26   17   20 1
  27   17   22 1
  28   17   29 1
  29   18   19 1
  30   18   30 1
  31   18   31 1
  32   19   22 1
  33   19   21 1
  34   19   32 1
  35   20   21 1
  36   20   33 1
  37   20   34 1
  38   21   35 1
  39   21   36 1
  40   22   37 1
  41   22   38 1

#	End of record

