#	Name: ASD01813639
#	Creating user name:	WinNT
#	Creation time:	15. 06. 2019 19:30

#	Modifying user name:	WinNT
#	Modification time:	15. 06. 2019 19:30

#	Program:	/corina/corina34_cracker 3.40 0067  02.08.2006

@<TRIPOS>MOLECULE
ASD01813639
  46   49    0    0    0
SMALL
NO_CHARGES


@<TRIPOS>ATOM
   1 C1            -0.3086     1.0173     0.5368 C.ar    
   2 C2            -0.1576    -0.3617     0.5142 C.ar    
   3 C3             1.0851    -0.9312     0.3289 C.ar    
   4 C4             2.2054    -0.1176     0.1620 C.ar    
   5 C5             2.0478     1.2781     0.1856 C.ar    
   6 C6             0.7847     1.8391     0.3739 C.ar    
   7 N7             3.4535    -0.6735    -0.0230 N.pl3   
   8 C8             4.5590     0.0636    -0.1863 C.2     
   9 C9             4.5302     1.4439    -0.1814 C.2     
  10 C10            3.2406     2.1273     0.0078 C.2     
  11 O11            3.1619     3.3432     0.0197 O.2     
  12 C12            5.7664     2.2177    -0.3630 C.2     
  13 O13            5.7253     3.5651    -0.3563 O.3     
  14 O14            6.8260     1.6427    -0.5193 O.2     
  15 C15            3.5751    -2.1334    -0.0412 C.3     
  16 C16            3.4361    -2.6314    -1.4567 C.ar    
  17 C17            4.5263    -2.6331    -2.3056 C.ar    
  18 N18            4.4178    -3.0666    -3.5458 N.ar    
  19 C19            3.2661    -3.5159    -4.0270 C.ar    
  20 C20            2.1260    -3.5424    -3.2257 C.ar    
  21 C21            2.2128    -3.0982    -1.9184 C.ar    
  22 F22            1.2168    -2.2756     0.3096 F       
  23 C23            3.1909    -3.9934    -5.4292 C.2     
  24 C24            4.0628    -4.8496    -6.0381 C.2     
  25 N25            3.6414    -5.0275    -7.3052 N.pl3   
  26 N26            2.4813    -4.2664    -7.4923 N.2     
  27 C27            2.2031    -3.6510    -6.3740 C.2     
  28 C28            1.0357    -2.7275    -6.1388 C.3     
  29 C29            5.2772    -5.4808    -5.4072 C.3     
  30 H30           -1.2887     1.4483     0.6783 H       
  31 H31           -1.0221    -0.9960     0.6434 H       
  32 H32            0.6645     2.9123     0.3916 H       
  33 H33            5.5051    -0.4382    -0.3262 H       
  34 H34            6.5639     4.0306    -0.4795 H       
  35 H35            4.5503    -2.4216     0.3512 H       
  36 H36            2.7910    -2.5710     0.5766 H       
  37 H37            5.4802    -2.2741    -1.9484 H       
  38 H38            1.1889    -3.9083    -3.6186 H       
  39 H39            1.3464    -3.1071    -1.2736 H       
  40 H40            4.0684    -5.5865    -7.9731 H       
  41 H41            0.2114    -3.2888    -5.6989 H       
  42 H42            1.3351    -1.9292    -5.4596 H       
  43 H43            0.7164    -2.2966    -7.0877 H       
  44 H44            4.9977    -6.4311    -4.9523 H       
  45 H45            6.0356    -5.6526    -6.1710 H       
  46 H46            5.6765    -4.8151    -4.6420 H       
@<TRIPOS>BOND
   1    1    2 ar
   2    1    6 ar
   3    1   30 1
   4    2    3 ar
   5    2   31 1
   6    3    4 ar
   7    3   22 1
   8    4    5 ar
   9    4    7 1
  10    5    6 ar
  11    5   10 1
  12    6   32 1
  13    7    8 1
  14    7   15 1
  15    8    9 2
  16    8   33 1
  17    9   10 1
  18    9   12 1
  19   10   11 2
  20   12   13 1
  21   12   14 2
  22   13   34 1
  23   15   16 1
  24   15   35 1
  25   15   36 1
  26   16   17 ar
  27   16   21 ar
  28   17   18 ar
  29   17   37 1
  30   18   19 ar
  31   19   20 ar
  32   19   23 1
  33   20   21 ar
  34   20   38 1
  35   21   39 1
  36   23   24 2
  37   23   27 1
  38   24   25 1
  39   24   29 1
  40   25   26 1
  41   25   40 1
  42   26   27 2
  43   27   28 1
  44   28   41 1
  45   28   42 1
  46   28   43 1
  47   29   44 1
  48   29   45 1
  49   29   46 1

#	End of record

