#	Name: ASD01200509
#	Creating user name:	WinNT
#	Creation time:	15. 06. 2019 19:09

#	Modifying user name:	WinNT
#	Modification time:	15. 06. 2019 19:09

#	Program:	/corina/corina34_cracker 3.40 0067  02.08.2006

@<TRIPOS>MOLECULE
ASD01200509
  25   26    0    0    0
SMALL
NO_CHARGES


@<TRIPOS>ATOM
   1 N1            -0.5629     1.1268    -0.3950 N.ar    
   2 C2            -0.3578    -0.1647    -0.2318 C.ar    
   3 C3             0.8616    -0.7368    -0.5711 C.ar    
   4 C4             1.8681     0.0750    -1.0879 C.ar    
   5 C5             1.6087     1.4271    -1.2424 C.ar    
   6 C6             0.3696     1.9224    -0.8818 C.ar    
   7 N7             1.0756    -2.1081    -0.3960 N.am    
   8 C8             0.1599    -2.8557     0.2513 C.2     
   9 C9             2.2951    -2.7315    -0.9161 C.3     
  10 O10           -0.7908    -2.3212     0.7903 O.2     
  11 C11           -0.7341    -5.1741     0.4828 C.2     
  12 C12            0.3100    -4.3176     0.3061 C.2     
  13 C13            1.5803    -4.9940     0.1774 C.2     
  14 C14            1.4772    -6.3147     0.2570 C.2     
  15 S15           -0.1950    -6.7910     0.4951 S.3     
  16 Br16          -2.5361    -4.6413     0.6940 Br      
  17 H17           -1.1456    -0.7845     0.1702 H       
  18 H18            2.8274    -0.3391    -1.3611 H       
  19 H19            2.3660     2.0867    -1.6398 H       
  20 H20            0.1620     2.9756    -1.0005 H       
  21 H21            3.0446    -2.7782    -0.1262 H       
  22 H22            2.0684    -3.7400    -1.2620 H       
  23 H23            2.6794    -2.1401    -1.7472 H       
  24 H24            2.5175    -4.4777     0.0314 H       
  25 H25            2.3077    -7.0015     0.1852 H       
@<TRIPOS>BOND
   1    1    2 ar
   2    1    6 ar
   3    2    3 ar
   4    2   17 1
   5    3    4 ar
   6    3    7 1
   7    4    5 ar
   8    4   18 1
   9    5    6 ar
  10    5   19 1
  11    6   20 1
  12    7    8 am
  13    7    9 1
  14    8   10 2
  15    8   12 1
  16    9   21 1
  17    9   22 1
  18    9   23 1
  19   11   12 2
  20   11   15 1
  21   11   16 1
  22   12   13 1
  23   13   14 2
  24   13   24 1
  25   14   15 1
  26   14   25 1

#	End of record

