#	Name: ASD01028784
#	Creating user name:	WinNT
#	Creation time:	15. 06. 2019 18:58

#	Modifying user name:	WinNT
#	Modification time:	15. 06. 2019 18:58

#	Program:	/corina/corina34_cracker 3.40 0067  02.08.2006

@<TRIPOS>MOLECULE
ASD01028784
  19   20    0    0    0
SMALL
NO_CHARGES


@<TRIPOS>ATOM
   1 N1            -0.0169     1.3967     0.0097 N.pl3   
   2 N2             0.0021    -0.0041     0.0020 N.2     
   3 C3             1.2502    -0.3973    -0.0120 C.2     
   4 C4             2.0698     0.7371    -0.0137 C.2     
   5 C5             1.2705     1.8296    -0.0002 C.2     
   6 C6            -1.1607     2.2071     0.0198 C.ar    
   7 C7            -2.4229     1.6288     0.0234 C.ar    
   8 C8            -3.5480     2.4299     0.0333 C.ar    
   9 C9            -3.4181     3.8066     0.0396 C.ar    
  10 C10           -2.1623     4.3855     0.0360 C.ar    
  11 C11           -1.0335     3.5896     0.0319 C.ar    
  12 Br12           3.9607     0.7428    -0.0312 Br      
  13 H13            1.5898    -1.4224    -0.0204 H       
  14 H14            1.5973     2.8590     0.0022 H       
  15 H15           -2.5249     0.5537     0.0182 H       
  16 H16           -4.5301     1.9807     0.0358 H       
  17 H17           -4.2993     4.4310     0.0470 H       
  18 H18           -2.0641     5.4610     0.0409 H       
  19 H19           -0.0529     4.0423     0.0336 H       
@<TRIPOS>BOND
   1    1    2 1
   2    1    5 1
   3    1    6 1
   4    2    3 2
   5    3    4 1
   6    3   13 1
   7    4    5 2
   8    4   12 1
   9    5   14 1
  10    6    7 ar
  11    6   11 ar
  12    7    8 ar
  13    7   15 1
  14    8    9 ar
  15    8   16 1
  16    9   10 ar
  17    9   17 1
  18   10   11 ar
  19   10   18 1
  20   11   19 1

#	End of record

