#	Name: ASD00069306
#	Creating user name:	WinNT
#	Creation time:	15. 06. 2019 18:29

#	Modifying user name:	WinNT
#	Modification time:	15. 06. 2019 18:29

#	Program:	/corina/corina34_cracker 3.40 0067  02.08.2006

@<TRIPOS>MOLECULE
ASD00069306
  50   52    0    0    0
SMALL
NO_CHARGES


@<TRIPOS>ATOM
   1 C1            -0.0184     1.5085     0.0103 C.3     
   2 C2             0.0021    -0.0041     0.0020 C.3     
   3 C3             0.6466    -0.4546    -1.3388 C.3     
   4 C4             2.1097    -0.0508    -1.2648 C.3     
   5 C5             2.1477     1.4826    -1.1542 C.3     
   6 N6             1.3868     1.9642    -0.0006 N.3     
   7 N7            -1.2641    -0.7138     0.0404 N.am    
   8 C8             0.3702    -1.9638    -1.2747 C.3     
   9 C9            -1.0638    -1.9965    -0.6765 C.3     
  10 C10           -2.4048    -0.2878     0.6180 C.2     
  11 O11           -2.4367     0.7904     1.1775 O.2     
  12 O12           -3.5091    -1.0568     0.5751 O.3     
  13 C13            1.4629     3.3566     0.1041 C.ar    
  14 C14            0.8661     4.1621    -0.8605 C.ar    
  15 C15            0.9434     5.5381    -0.7529 C.ar    
  16 C16            1.6134     6.1130     0.3121 C.ar    
  17 C17            2.2072     5.3147     1.2717 C.ar    
  18 C18            2.1291     3.9384     1.1737 C.ar    
  19 N19            2.7607     3.0854     2.2053 N.pl3   
  20 O20            3.3453     3.5964     3.1437 O.2     
  21 O21            2.6960     1.8724     2.1157 O.2     
  22 F22            0.2125     3.6005    -1.9010 F       
  23 C23           -4.7016    -0.5345     1.2181 C.3     
  24 C24           -5.0969     0.7895     0.5611 C.3     
  25 C25           -5.8447    -1.5401     1.0668 C.3     
  26 C26           -4.4197    -0.3024     2.7039 C.3     
  27 H27           -0.5353     1.8777    -0.8755 H       
  28 H28           -0.5183     1.8681     0.9098 H       
  29 H29            0.6196    -0.3569     0.8280 H       
  30 H30            0.1541     0.0109    -2.1926 H       
  31 H31            2.5752    -0.4986    -0.3868 H       
  32 H32            2.6302    -0.3715    -2.1672 H       
  33 H33            3.1840     1.8059    -1.0560 H       
  34 H34            1.7272     1.9146    -2.0623 H       
  35 H35            0.3878    -2.4065    -2.2706 H       
  36 H36            1.0798    -2.4629    -0.6148 H       
  37 H37           -1.1569    -2.8298     0.0200 H       
  38 H38           -1.7979    -2.0935    -1.4764 H       
  39 H39            0.4806     6.1647    -1.5009 H       
  40 H40            1.6732     7.1883     0.3938 H       
  41 H41            2.7294     5.7672     2.1016 H       
  42 H42           -5.2976     0.6242    -0.4974 H       
  43 H43           -5.9920     1.1817     1.0438 H       
  44 H44           -4.2825     1.5060     0.6688 H       
  45 H45           -5.5631    -2.4834     1.5349 H       
  46 H46           -6.7398    -1.1480     1.5495 H       
  47 H47           -6.0455    -1.7055     0.0083 H       
  48 H48           -3.6054     0.4141     2.8116 H       
  49 H49           -5.3149     0.0898     3.1866 H       
  50 H50           -4.1381    -1.2456     3.1719 H       
@<TRIPOS>BOND
   1    1    2 1
   2    1    6 1
   3    1   27 1
   4    1   28 1
   5    2    3 1
   6    2    7 1
   7    2   29 1
   8    3    4 1
   9    3    8 1
  10    3   30 1
  11    4    5 1
  12    4   31 1
  13    4   32 1
  14    5    6 1
  15    5   33 1
  16    5   34 1
  17    6   13 1
  18    7    9 1
  19    7   10 am
  20    8    9 1
  21    8   35 1
  22    8   36 1
  23    9   37 1
  24    9   38 1
  25   10   11 2
  26   10   12 1
  27   12   23 1
  28   13   14 ar
  29   13   18 ar
  30   14   15 ar
  31   14   22 1
  32   15   16 ar
  33   15   39 1
  34   16   17 ar
  35   16   40 1
  36   17   18 ar
  37   17   41 1
  38   18   19 1
  39   19   20 2
  40   19   21 2
  41   23   24 1
  42   23   26 1
  43   23   25 1
  44   24   42 1
  45   24   43 1
  46   24   44 1
  47   25   45 1
  48   25   46 1
  49   25   47 1
  50   26   48 1
  51   26   49 1
  52   26   50 1

#	End of record

