#	Name: ASD03950078
#	Creating user name:	WinNT
#	Creation time:	15. 06. 2019 20:48

#	Modifying user name:	WinNT
#	Modification time:	15. 06. 2019 20:48

#	Program:	/corina/corina34_cracker 3.40 0067  02.08.2006

@<TRIPOS>MOLECULE
ASD03950078
  55   58    0    0    0
SMALL
NO_CHARGES


@<TRIPOS>ATOM
   1 N1            -0.0169     1.3942     0.0097 N.pl3   
   2 N2             0.0021    -0.0041     0.0020 N.2     
   3 C3             1.2311    -0.4341    -0.0120 C.2     
   4 C4             2.1093     0.7334    -0.0141 C.ar    
   5 C5             3.4967     0.8991    -0.0268 C.ar    
   6 C6             4.0411     2.1755    -0.0256 C.ar    
   7 C7             3.2113     3.2978    -0.0112 C.ar    
   8 C8             1.8299     3.1501     0.0020 C.ar    
   9 C9             1.2663     1.8606    -0.0000 C.ar    
  10 C10            0.9577     4.3398     0.0172 C.2     
  11 O11           -0.2510     4.2074     0.0288 O.2     
  12 N12            1.5006     5.5734     0.0182 N.am    
  13 C13            5.5153     2.3485    -0.0391 C.ar    
  14 C14            6.0662     3.6250    -0.0380 C.ar    
  15 C15            7.4541     3.7796    -0.0508 C.ar    
  16 C16            8.2790     2.6495    -0.0647 C.ar    
  17 C17            7.7223     1.3874    -0.0658 C.ar    
  18 C18            6.3492     1.2309    -0.0473 C.ar    
  19 C19            8.0470     5.1268    -0.0502 C.2     
  20 O20            9.2523     5.2587    -0.0613 O.2     
  21 N21            1.2107    -4.6672    -0.0344 N.am    
  22 C22            1.6136    -4.0361     1.2298 C.3     
  23 C23            1.1379    -2.5799     1.2275 C.3     
  24 C24            1.6687    -1.8761    -0.0235 C.3     
  25 C25            1.1163    -2.5666    -1.2725 C.3     
  26 C26            1.5916    -4.0227    -1.2986 C.3     
  27 S27            0.3495    -6.0817    -0.0344 S.o2    
  28 O28            0.6709    -6.6875    -1.2790 O.2     
  29 O29            0.6975    -6.7039     1.1948 O.2     
  30 C30           -1.3862    -5.5549    -0.0123 C.3     
  31 C31           -2.2932    -6.7870    -0.0106 C.3     
  32 H32           -0.8151     1.9454     0.0166 H       
  33 H33            4.1445     0.0349    -0.0373 H       
  34 H34            3.6455     4.2866    -0.0100 H       
  35 H35            2.4648     5.6790     0.0090 H       
  36 H36            0.9271     6.3556     0.0282 H       
  37 H37            5.4237     4.4930    -0.0275 H       
  38 H38            9.3527     2.7655    -0.0751 H       
  39 H39            8.3623     0.5176    -0.0766 H       
  40 H40            5.9205     0.2396    -0.0437 H       
  41 H41            7.4085     5.9978    -0.0397 H       
  42 H42            1.1581    -4.5680     2.0651 H       
  43 H43            2.6991    -4.0658     1.3233 H       
  44 H44            0.0483    -2.5531     1.2253 H       
  45 H45            1.5130    -2.0733     2.1168 H       
  46 H46            2.7576    -1.9251    -0.0333 H       
  47 H47            0.0268    -2.5399    -1.2511 H       
  48 H48            1.4759    -2.0505    -2.1627 H       
  49 H49            2.6754    -4.0513    -1.4112 H       
  50 H50            1.1217    -4.5456    -2.1315 H       
  51 H51           -1.5750    -4.9635     0.8837 H       
  52 H52           -1.5942    -4.9518    -0.8961 H       
  53 H53           -2.1044    -7.3784    -0.9066 H       
  54 H54           -2.0852    -7.3901     0.8732 H       
  55 H55           -3.3361    -6.4705     0.0027 H       
@<TRIPOS>BOND
   1    1    2 1
   2    1    9 1
   3    1   32 1
   4    2    3 2
   5    3    4 1
   6    3   24 1
   7    4    5 ar
   8    4    9 ar
   9    5    6 ar
  10    5   33 1
  11    6    7 ar
  12    6   13 1
  13    7    8 ar
  14    7   34 1
  15    8    9 ar
  16    8   10 1
  17   10   11 2
  18   10   12 am
  19   12   35 1
  20   12   36 1
  21   13   14 ar
  22   13   18 ar
  23   14   15 ar
  24   14   37 1
  25   15   16 ar
  26   15   19 1
  27   16   17 ar
  28   16   38 1
  29   17   18 ar
  30   17   39 1
  31   18   40 1
  32   19   20 2
  33   19   41 1
  34   21   22 1
  35   21   26 1
  36   21   27 am
  37   22   23 1
  38   22   42 1
  39   22   43 1
  40   23   24 1
  41   23   44 1
  42   23   45 1
  43   24   25 1
  44   24   46 1
  45   25   26 1
  46   25   47 1
  47   25   48 1
  48   26   49 1
  49   26   50 1
  50   27   28 2
  51   27   29 2
  52   27   30 1
  53   30   31 1
  54   30   51 1
  55   30   52 1
  56   31   53 1
  57   31   54 1
  58   31   55 1

#	End of record

