#	Name: ASD04270002
#	Creating user name:	WinNT
#	Creation time:	15. 06. 2019 20:48

#	Modifying user name:	WinNT
#	Modification time:	15. 06. 2019 20:48

#	Program:	/corina/corina34_cracker 3.40 0067  02.08.2006

@<TRIPOS>MOLECULE
ASD04270002
  31   32    0    0    0
SMALL
NO_CHARGES


@<TRIPOS>ATOM
   1 C1            -0.0170     1.4015     0.0097 C.ar    
   2 C2             0.0021    -0.0041     0.0020 C.ar    
   3 C3             1.1937    -0.6613    -0.0128 C.ar    
   4 C4             2.3989     0.0385    -0.0205 C.ar    
   5 C5             2.4192     1.3994    -0.0130 C.ar    
   6 C6             1.2089     2.1131     0.0019 C.ar    
   7 C7             1.1919     3.5189     0.0099 C.ar    
   8 C8             0.0030     4.1789     0.0252 C.ar    
   9 C9            -1.2077     3.4790     0.0336 C.ar    
  10 C10           -1.2277     2.1135     0.0193 C.ar    
  11 O11           -2.3796     4.1666     0.0493 O.3     
  12 C12           -2.2948     5.5931     0.0565 C.3     
  13 C13            3.6992    -0.7230    -0.0369 C.3     
  14 C14            3.7629    -1.5964    -1.2915 C.3     
  15 C15            3.7853    -1.5965     1.1881 C.2     
  16 O16            4.8640    -2.3704     1.3862 O.3     
  17 O17            2.8833    -1.6002     1.9920 O.2     
  18 H18           -0.9241    -0.5595     0.0082 H       
  19 H19            1.2055    -1.7412    -0.0184 H       
  20 H20            3.3610     1.9281    -0.0190 H       
  21 H21            2.1192     4.0724     0.0043 H       
  22 H22           -0.0063     5.2589     0.0314 H       
  23 H23           -2.1690     1.5841     0.0209 H       
  24 H24           -1.7513     5.9203     0.9429 H       
  25 H25           -1.7693     5.9303    -0.8370 H       
  26 H26           -3.2990     6.0167     0.0691 H       
  27 H27            4.5321    -0.0199    -0.0410 H       
  28 H28            4.7034    -2.1473    -1.3034 H       
  29 H29            2.9301    -2.2996    -1.2874 H       
  30 H30            3.7007    -0.9647    -2.1776 H       
  31 H31            4.8739    -2.9133     2.1863 H       
@<TRIPOS>BOND
   1    1    2 ar
   2    1    6 ar
   3    1   10 ar
   4    2    3 ar
   5    2   18 1
   6    3    4 ar
   7    3   19 1
   8    4    5 ar
   9    4   13 1
  10    5    6 ar
  11    5   20 1
  12    6    7 ar
  13    7    8 ar
  14    7   21 1
  15    8    9 ar
  16    8   22 1
  17    9   10 ar
  18    9   11 1
  19   10   23 1
  20   11   12 1
  21   12   24 1
  22   12   25 1
  23   12   26 1
  24   13   14 1
  25   13   15 1
  26   13   27 1
  27   14   28 1
  28   14   29 1
  29   14   30 1
  30   15   16 1
  31   15   17 2
  32   16   31 1

#	End of record

