#	Name: ASD00840871
#	Creating user name:	WinNT
#	Creation time:	15. 06. 2019 18:40

#	Modifying user name:	WinNT
#	Modification time:	15. 06. 2019 18:40

#	Program:	/corina/corina34_cracker 3.40 0067  02.08.2006

@<TRIPOS>MOLECULE
ASD00840871
  98  103    0    0    0
SMALL
NO_CHARGES


@<TRIPOS>ATOM
   1 F1             5.9969    -1.9448    -2.1125 F       
   2 N2             0.9850     1.4259    -0.8224 N.ar    
   3 C3             1.2594     0.1349    -0.9071 C.ar    
   4 C4             1.2001    -0.6767     0.2187 C.ar    
   5 C5             0.8492    -0.1168     1.4345 C.ar    
   6 C6             0.5686     1.2420     1.4814 C.ar    
   7 C7             0.6475     1.9883     0.3227 C.ar    
   8 C8             1.5132    -2.1473     0.1173 C.3     
   9 C9             1.2557    -2.8367     1.4400 C.2     
  10 C10            0.6852    -2.7947    -0.9945 C.3     
  11 C11           -0.7762    -2.5076    -0.7646 C.2     
  12 N12           -1.7048    -3.0415    -1.5826 N.am    
  13 O13           -1.1168    -1.7961     0.1567 O.2     
  14 C14           -3.1219    -2.6790    -1.4440 C.3     
  15 C15           -3.9475    -3.9618    -1.3041 C.3     
  16 C16           -3.6482    -4.8877    -2.4853 C.3     
  17 C17           -2.1650    -5.2647    -2.4770 C.3     
  18 C18           -1.3184    -3.9924    -2.6339 C.3     
  19 C19           -4.4969    -6.1553    -2.3671 C.3     
  20 C20           -5.9813    -5.7799    -2.3770 C.3     
  21 C21           -6.8254    -7.0552    -2.3200 C.3     
  22 N22           -6.5093    -7.9049    -3.4752 N.3     
  23 C23           -5.0999    -8.3169    -3.4615 C.3     
  24 C24           -4.2043    -7.0793    -3.5525 C.3     
  25 C25           -7.3987    -9.0728    -3.5287 C.3     
  26 O26            0.1916    -2.9124     2.0172 O.2     
  27 N27            2.4262    -3.3493     1.8548 N.am    
  28 C28            2.9903    -2.3586    -0.1271 C.ar    
  29 C29            3.4653    -3.0871     0.9587 C.ar    
  30 C30            3.8304    -1.9770    -1.1498 C.ar    
  31 C31            5.1713    -2.3173    -1.1101 C.ar    
  32 C32            5.6667    -3.0495    -0.0263 C.ar    
  33 C33            4.8106    -3.4330     1.0057 C.ar    
  34 C34            2.3361    -5.8952     2.8962 C.ar    
  35 C35            1.0817    -6.3187     2.4827 C.ar    
  36 C36            3.3681    -6.8066     3.0126 C.ar    
  37 C37            3.1513    -8.1395     2.7169 C.ar    
  38 C38            1.9016    -8.5642     2.3044 C.ar    
  39 C39            0.8666    -7.6572     2.1868 C.ar    
  40 H40            1.7348    -9.6061     2.0739 H       
  41 O41            0.0650    -5.4244     2.3678 O.3     
  42 C42           -1.1996    -5.9315     1.9366 C.3     
  43 C43           -2.2117    -4.7861     1.8677 C.3     
  44 C44           -7.1236    -9.8652    -4.8082 C.3     
  45 C45           -7.1434    -9.9644    -2.3118 C.3     
  46 S46            2.6153    -4.1952     3.2658 S.o2    
  47 O47            3.9865    -4.0816     3.6210 O.2     
  48 O48            1.5549    -3.7911     4.1211 O.2     
  49 O49            1.6018    -0.4020    -2.1052 O.3     
  50 C50            2.0672    -0.2815    -4.4736 C.3     
  51 C51            1.5362     0.4585    -3.2442 C.3     
  52 C52            7.0527    -3.4061     0.0233 C.1     
  53 N53            8.1522    -3.6889     0.0627 N.1     
  54 H54            0.7945    -0.7231     2.3266 H       
  55 H55            0.2913     1.7102     2.4143 H       
  56 H56            0.4305     3.0458     0.3538 H       
  57 H57            0.9884    -2.3859    -1.9584 H       
  58 H58            0.8490    -3.8723    -0.9891 H       
  59 H59           -3.2556    -2.0598    -0.5570 H       
  60 H60           -3.4467    -2.1300    -2.3279 H       
  61 H61           -3.6850    -4.4636    -0.3728 H       
  62 H62           -5.0086    -3.7125    -1.2971 H       
  63 H63           -3.8877    -4.3762    -3.4175 H       
  64 H64           -1.9192    -5.7543    -1.5347 H       
  65 H65           -1.9573    -5.9428    -3.3048 H       
  66 H66           -1.4974    -3.5531    -3.6152 H       
  67 H67           -0.2622    -4.2411    -2.5297 H       
  68 H68           -4.2572    -6.6687    -1.4360 H       
  69 H69           -6.2048    -5.1566    -1.5111 H       
  70 H70           -6.2120    -5.2314    -3.2902 H       
  71 H71           -6.6044    -7.5962    -1.3999 H       
  72 H72           -7.8829    -6.7920    -2.3412 H       
  73 H73           -4.8870    -8.8520    -2.5360 H       
  74 H74           -4.9042    -8.9702    -4.3118 H       
  75 H75           -4.4070    -6.5512    -4.4843 H       
  76 H76           -3.1582    -7.3844    -3.5266 H       
  77 H77           -8.4366    -8.7397    -3.5236 H       
  78 H78            3.4421    -1.4117    -1.9842 H       
  79 H79            5.1935    -3.9984     1.8424 H       
  80 H80            4.3449    -6.4773     3.3346 H       
  81 H81            3.9594    -8.8502     2.8078 H       
  82 H82           -0.1094    -7.9896     1.8653 H       
  83 H83           -1.0930    -6.3820     0.9499 H       
  84 H84           -1.5496    -6.6836     2.6436 H       
  85 H85           -1.8617    -4.0340     1.1607 H       
  86 H86           -3.1762    -5.1729     1.5388 H       
  87 H87           -2.3183    -4.3356     2.8545 H       
  88 H88           -6.0858   -10.1983    -4.8133 H       
  89 H89           -7.7836   -10.7318    -4.8479 H       
  90 H90           -7.3055    -9.2300    -5.6751 H       
  91 H91           -7.3394    -9.3999    -1.4002 H       
  92 H92           -7.8034   -10.8310    -2.3515 H       
  93 H93           -6.1056   -10.2976    -2.3168 H       
  94 H94            2.0993     0.4011    -5.3228 H       
  95 H95            3.0710    -0.6534    -4.2683 H       
  96 H96            1.4097    -1.1193    -4.7055 H       
  97 H97            0.5014     0.7542    -3.4170 H       
  98 H98            2.1426     1.3462    -3.0644 H       
@<TRIPOS>BOND
   1    1   31 1
   2    2    3 ar
   3    2    7 ar
   4    3    4 ar
   5    3   49 1
   6    4    5 ar
   7    4    8 1
   8    5    6 ar
   9    5   54 1
  10    6    7 ar
  11    6   55 1
  12    7   56 1
  13    8    9 1
  14    8   10 1
  15    8   28 1
  16    9   26 2
  17    9   27 am
  18   10   11 1
  19   10   57 1
  20   10   58 1
  21   11   12 am
  22   11   13 2
  23   12   14 1
  24   12   18 1
  25   14   15 1
  26   14   59 1
  27   14   60 1
  28   15   16 1
  29   15   61 1
  30   15   62 1
  31   16   17 1
  32   16   19 1
  33   16   63 1
  34   17   18 1
  35   17   64 1
  36   17   65 1
  37   18   66 1
  38   18   67 1
  39   19   20 1
  40   19   24 1
  41   19   68 1
  42   20   21 1
  43   20   69 1
  44   20   70 1
  45   21   22 1
  46   21   71 1
  47   21   72 1
  48   22   23 1
  49   22   25 1
  50   23   24 1
  51   23   73 1
  52   23   74 1
  53   24   75 1
  54   24   76 1
  55   25   44 1
  56   25   45 1
  57   25   77 1
  58   27   46 am
  59   27   29 1
  60   28   29 ar
  61   28   30 ar
  62   29   33 ar
  63   30   31 ar
  64   30   78 1
  65   31   32 ar
  66   32   33 ar
  67   32   52 1
  68   33   79 1
  69   34   35 ar
  70   34   36 ar
  71   34   46 1
  72   35   41 1
  73   35   39 ar
  74   36   37 ar
  75   36   80 1
  76   37   38 ar
  77   37   81 1
  78   38   39 ar
  79   38   40 1
  80   39   82 1
  81   41   42 1
  82   42   43 1
  83   42   83 1
  84   42   84 1
  85   43   85 1
  86   43   86 1
  87   43   87 1
  88   44   88 1
  89   44   89 1
  90   44   90 1
  91   45   91 1
  92   45   92 1
  93   45   93 1
  94   46   47 2
  95   46   48 2
  96   49   51 1
  97   50   51 1
  98   50   94 1
  99   50   95 1
 100   50   96 1
 101   51   97 1
 102   51   98 1
 103   52   53 3

#	End of record

