#	Name: ASD01870615
#	Creating user name:	WinNT
#	Creation time:	15. 06. 2019 19:39

#	Modifying user name:	WinNT
#	Modification time:	15. 06. 2019 19:39

#	Program:	/corina/corina34_cracker 3.40 0067  02.08.2006

@<TRIPOS>MOLECULE
ASD01870615
  38   41    0    0    0
SMALL
NO_CHARGES


@<TRIPOS>ATOM
   1 C1             0.0068     1.3632    -0.0391 C.ar    
   2 C2             0.0303    -0.0227    -0.0500 C.ar    
   3 C3             1.2335    -0.7032    -0.0596 C.ar    
   4 C4             2.4334    -0.0093    -0.0584 C.ar    
   5 C5             2.4256     1.3764    -0.0480 C.ar    
   6 C6             1.1985     2.0705    -0.0382 C.ar    
   7 C7             3.4773     2.4146    -0.0438 C.2     
   8 N8             2.8866     3.6232    -0.0328 N.am    
   9 C9             1.5464     3.5067    -0.0284 C.2     
  10 C10            3.5728     4.8364    -0.0260 C.ar    
  11 N11            2.8835     5.9660    -0.0152 N.ar    
  12 C12            3.4998     7.1360    -0.0081 C.ar    
  13 C13            4.8917     7.1680    -0.0121 C.ar    
  14 C14            5.5814     5.9587    -0.0235 C.ar    
  15 N15            4.8961     4.8276    -0.0250 N.ar    
  16 O16            0.7549     4.4277    -0.0186 O.2     
  17 O17            4.6745     2.2109    -0.0490 O.2     
  18 N18            5.5811     8.3870    -0.0053 N.am    
  19 C19            6.7512     8.4957     0.6546 C.2     
  20 C20            7.5314     9.7339     0.5646 C.2     
  21 O21            7.1603     7.5660     1.3253 O.2     
  22 C22            8.7267     9.9757     1.1793 C.2     
  23 C23            9.1094    11.2773     0.8195 C.2     
  24 C24            8.1433    11.7668     0.0113 C.2     
  25 O25            7.1971    10.8318    -0.1446 O.3     
  26 C26            9.4872     9.0287     2.0714 C.3     
  27 H27           -0.9362     1.8896    -0.0357 H       
  28 H28           -0.8979    -0.5747    -0.0506 H       
  29 H29            1.2387    -1.7831    -0.0676 H       
  30 H30            3.3704    -0.5463    -0.0652 H       
  31 H31            2.9312     8.0542     0.0003 H       
  32 H32            6.6613     5.9445    -0.0268 H       
  33 H33            5.2166     9.1530    -0.4755 H       
  34 H34           10.0071    11.7911     1.1302 H       
  35 H35            8.1373    12.7488    -0.4384 H       
  36 H36           10.1671     8.4277     1.4676 H       
  37 H37           10.0590     9.5992     2.8033 H       
  38 H38            8.7856     8.3743     2.5887 H       
@<TRIPOS>BOND
   1    1    2 ar
   2    1    6 ar
   3    1   27 1
   4    2    3 ar
   5    2   28 1
   6    3    4 ar
   7    3   29 1
   8    4    5 ar
   9    4   30 1
  10    5    7 1
  11    5    6 ar
  12    6    9 1
  13    7    8 am
  14    7   17 2
  15    8    9 am
  16    8   10 1
  17    9   16 2
  18   10   11 ar
  19   10   15 ar
  20   11   12 ar
  21   12   13 ar
  22   12   31 1
  23   13   14 ar
  24   13   18 1
  25   14   15 ar
  26   14   32 1
  27   18   19 am
  28   18   33 1
  29   19   20 1
  30   19   21 2
  31   20   22 2
  32   20   25 1
  33   22   23 1
  34   22   26 1
  35   23   24 2
  36   23   34 1
  37   24   25 1
  38   24   35 1
  39   26   36 1
  40   26   37 1
  41   26   38 1

#	End of record

