#	Name: ASD03331314
#	Creating user name:	WinNT
#	Creation time:	15. 06. 2019 20:39

#	Modifying user name:	WinNT
#	Modification time:	15. 06. 2019 20:39

#	Program:	/corina/corina34_cracker 3.40 0067  02.08.2006

@<TRIPOS>MOLECULE
ASD03331314
  49   52    0    0    0
SMALL
NO_CHARGES


@<TRIPOS>ATOM
   1 C1            -0.0144     1.2108     0.0087 C.2     
   2 O2            -0.0293    -0.0041     0.0010 O.2     
   3 N3             1.1602     1.8706    -0.0282 N.am    
   4 C4             2.4316     1.1424     0.0810 C.3     
   5 C5             3.2583     1.7606     1.2130 C.3     
   6 C6             3.4136     3.2626     0.9642 C.3     
   7 C7             2.0342     3.9254     0.9559 C.3     
   8 C8             1.1938     3.3311    -0.1846 C.3     
   9 O9             4.2115     3.8369     2.0013 O.3     
  10 C10           -4.8020     2.1931    -0.0324 C.3     
  11 C11           -3.3084     2.3889     0.0365 C.2     
  12 C12           -2.4169     1.3718    -0.0437 C.2     
  13 C13           -2.8232    -0.0721    -0.2063 C.3     
  14 C14           -4.3148    -0.1830     0.1396 C.3     
  15 N15           -5.0672     0.8524    -0.5817 N.3     
  16 N16           -1.3043     3.2886     0.1938 N.2     
  17 N17           -1.1727     1.8986     0.0485 N.am    
  18 C18           -2.5884     3.5846     0.1869 C.2     
  19 C19           -6.5062     0.5569    -0.5772 C.3     
  20 C20           -3.1709     4.9432     0.3152 C.ar    
  21 C21           -2.5581     5.8918     1.1318 C.ar    
  22 C22           -3.1039     7.1556     1.2477 C.ar    
  23 C23           -4.2606     7.4795     0.5525 C.ar    
  24 C24           -4.8714     6.5385    -0.2590 C.ar    
  25 C25           -4.3287     5.2756    -0.3849 C.ar    
  26 F26           -4.7922     8.7161     0.6683 F       
  27 F27           -2.5115     8.0767     2.0388 F       
  28 H28            2.2342     0.0937     0.3034 H       
  29 H29            2.9801     1.2220    -0.8576 H       
  30 H30            2.7504     1.5999     2.1639 H       
  31 H31            4.2424     1.2929     1.2420 H       
  32 H32            3.8993     3.4230     0.0017 H       
  33 H33            1.5378     3.7443     1.9093 H       
  34 H34            2.1471     4.9985     0.8020 H       
  35 H35            1.6435     3.5856    -1.1444 H       
  36 H36            0.1794     3.7271    -0.1375 H       
  37 H37            4.3519     4.7891     1.9079 H       
  38 H38           -5.2294     2.2718     0.9672 H       
  39 H39           -5.2423     2.9499    -0.6816 H       
  40 H40           -2.6589    -0.3879    -1.2365 H       
  41 H41           -2.2402    -0.6978     0.4695 H       
  42 H42           -4.6824    -1.1672    -0.1506 H       
  43 H43           -4.4495    -0.0477     1.2127 H       
  44 H44           -7.0304     1.2939    -1.1856 H       
  45 H45           -6.6739    -0.4388    -0.9878 H       
  46 H46           -6.8820     0.5963     0.4452 H       
  47 H47           -1.6584     5.6393     1.6733 H       
  48 H48           -5.7715     6.7946    -0.7980 H       
  49 H49           -4.8039     4.5443    -1.0219 H       
@<TRIPOS>BOND
   1    1    2 2
   2    1    3 am
   3    1   17 am
   4    3    4 1
   5    3    8 1
   6    4    5 1
   7    4   28 1
   8    4   29 1
   9    5    6 1
  10    5   30 1
  11    5   31 1
  12    6    7 1
  13    6    9 1
  14    6   32 1
  15    7    8 1
  16    7   33 1
  17    7   34 1
  18    8   35 1
  19    8   36 1
  20    9   37 1
  21   10   11 1
  22   10   15 1
  23   10   38 1
  24   10   39 1
  25   11   12 2
  26   11   18 1
  27   12   13 1
  28   12   17 1
  29   13   14 1
  30   13   40 1
  31   13   41 1
  32   14   15 1
  33   14   42 1
  34   14   43 1
  35   15   19 1
  36   16   17 1
  37   16   18 2
  38   18   20 1
  39   19   44 1
  40   19   45 1
  41   19   46 1
  42   20   21 ar
  43   20   25 ar
  44   21   22 ar
  45   21   47 1
  46   22   23 ar
  47   22   27 1
  48   23   24 ar
  49   23   26 1
  50   24   25 ar
  51   24   48 1
  52   25   49 1

#	End of record

