#	Name: ASD07931953
#	Creating user name:	WinNT
#	Creation time:	15. 06. 2019 21:13

#	Modifying user name:	WinNT
#	Modification time:	15. 06. 2019 21:13

#	Program:	/corina/corina34_cracker 3.40 0067  02.08.2006

@<TRIPOS>MOLECULE
ASD07931953
  47   50    0    0    0
SMALL
NO_CHARGES


@<TRIPOS>ATOM
   1 C1             0.0588     1.5186     0.5826 C.ar    
   2 C2             0.1580     0.2618     1.1772 C.ar    
   3 C3             1.3710    -0.4030     1.1521 C.ar    
   4 C4             2.4572     0.2191     0.5255 C.ar    
   5 C5             2.2784     1.4818    -0.0488 C.ar    
   6 N6             1.1097     2.0799    -0.0034 N.ar    
   7 C7            -1.2381     2.2351     0.5995 C.2     
   8 O8            -2.2063     1.7265     1.1293 O.2     
   9 N9            -1.3439     3.4507     0.0272 N.am    
  10 C10            3.7336    -0.4280     0.4736 C.1     
  11 N11            4.7461    -0.9414     0.4324 N.1     
  12 C12           -2.5915     4.0785    -0.0562 C.ar    
  13 C13           -2.6845     5.4594     0.0609 C.ar    
  14 C14           -3.9167     6.0770    -0.0221 C.ar    
  15 C15           -5.0596     5.3205    -0.2215 C.ar    
  16 C16           -4.9693     3.9437    -0.3380 C.ar    
  17 C17           -3.7380     3.3224    -0.2618 C.ar    
  18 F18           -6.2642     5.9267    -0.3019 F       
  19 S19           -2.7238     9.7776    -1.8112 S.3     
  20 C20           -2.0824     9.0460    -0.3436 C.2     
  21 N21           -2.7180     8.1624     0.3237 N.2     
  22 C22           -4.0181     7.5752     0.1049 C.3     
  23 C23           -4.8039     8.1876    -1.0637 C.3     
  24 C24           -3.9250     8.4978    -2.2606 C.3     
  25 O25           -5.4270     9.2830     0.9682 O.3     
  26 C26           -4.9297     7.9760     1.3010 C.3     
  27 C27           -5.4069     9.4638    -0.4554 C.3     
  28 C28           -6.8315     9.6662    -0.9752 C.3     
  29 F29           -7.6194     8.5673    -0.6162 F       
  30 F30           -7.3711    10.8295    -0.4160 F       
  31 F31           -6.8067     9.7868    -2.3688 F       
  32 N32           -0.8435     9.4434     0.1030 N.pl3   
  33 H33           -0.7016    -0.1875     1.6522 H       
  34 H34            1.4773    -1.3776     1.6050 H       
  35 H35            3.1100     1.9704    -0.5346 H       
  36 H36           -0.5551     3.8903    -0.3270 H       
  37 H37           -1.7936     6.0497     0.2171 H       
  38 H38           -5.8618     3.3557    -0.4931 H       
  39 H39           -3.6675     2.2490    -0.3571 H       
  40 H40           -5.6056     7.5119    -1.3618 H       
  41 H41           -4.5444     8.8538    -3.0838 H       
  42 H42           -3.3966     7.5951    -2.5672 H       
  43 H43           -5.7548     7.2710     1.4012 H       
  44 H44           -4.3495     8.0150     2.2229 H       
  45 H45           -4.7895    10.3248    -0.7116 H       
  46 H46           -0.3428    10.1134    -0.3883 H       
  47 H47           -0.4706     9.0537     0.9092 H       
@<TRIPOS>BOND
   1    1    2 ar
   2    1    6 ar
   3    1    7 1
   4    2    3 ar
   5    2   33 1
   6    3    4 ar
   7    3   34 1
   8    4    5 ar
   9    4   10 1
  10    5    6 ar
  11    5   35 1
  12    7    8 2
  13    7    9 am
  14    9   12 1
  15    9   36 1
  16   10   11 3
  17   12   13 ar
  18   12   17 ar
  19   13   14 ar
  20   13   37 1
  21   14   15 ar
  22   14   22 1
  23   15   16 ar
  24   15   18 1
  25   16   17 ar
  26   16   38 1
  27   17   39 1
  28   19   20 1
  29   19   24 1
  30   20   21 2
  31   20   32 1
  32   21   22 1
  33   22   26 1
  34   22   23 1
  35   23   24 1
  36   23   27 1
  37   23   40 1
  38   24   41 1
  39   24   42 1
  40   25   26 1
  41   25   27 1
  42   26   43 1
  43   26   44 1
  44   27   28 1
  45   27   45 1
  46   28   29 1
  47   28   30 1
  48   28   31 1
  49   32   46 1
  50   32   47 1

#	End of record

