#	Name: ASD07930204
#	Creating user name:	WinNT
#	Creation time:	15. 06. 2019 21:11

#	Modifying user name:	WinNT
#	Modification time:	15. 06. 2019 21:11

#	Program:	/corina/corina34_cracker 3.40 0067  02.08.2006

@<TRIPOS>MOLECULE
ASD07930204
  55   59    0    0    0
SMALL
NO_CHARGES


@<TRIPOS>ATOM
   1 C1            -0.0180     1.4754     0.0102 C.2     
   2 C2             0.0021    -0.0041     0.0020 C.2     
   3 N3             1.1814     2.1509     0.0023 N.am    
   4 N4             1.1194    -0.6400     0.4288 N.am    
   5 C5             2.2493     0.1650     0.9143 C.3     
   6 C6             2.4261     1.3707    -0.0208 C.3     
   7 C7            -1.2008     2.1485     0.0195 C.2     
   8 C8            -1.2247     3.5486     0.0291 C.2     
   9 C9            -0.0458     4.2425     0.0303 C.2     
  10 C10            1.2139     3.4948     0.0143 C.2     
  11 O11           -0.9642    -0.6358    -0.3794 O.2     
  12 O12            2.2807     4.0852     0.0118 O.2     
  13 C13            1.2002    -2.1026     0.4064 C.3     
  14 C14            1.0276    -2.6010    -1.0298 C.3     
  15 O15           -0.2894    -2.2881    -1.4875 O.3     
  16 O16           -2.9359    -1.7579    -2.6803 O.3     
  17 C17           -4.1389    -2.0841    -3.3968 C.3     
  18 C18           -3.6186    -2.3748    -4.8244 C.3     
  19 C19           -2.1852    -2.7912    -4.5566 C.ar    
  20 C20           -1.8798    -2.3900    -3.2641 C.ar    
  21 C21           -0.6087    -2.6655    -2.7549 C.ar    
  22 C22            0.3268    -3.3207    -3.5357 C.ar    
  23 C23            0.0115    -3.7080    -4.8248 C.ar    
  24 C24           -1.2490    -3.4416    -5.3345 C.ar    
  25 F25           -1.5618    -3.8187    -6.5935 F       
  26 F26           -4.7488    -3.2186    -2.8509 F       
  27 F27           -5.0221    -0.9991    -3.4025 F       
  28 C28            0.0936    -2.6880     1.2859 C.3     
  29 C29            0.4239     6.4402     1.0348 C.2     
  30 N30            0.2552     7.6848     0.6804 N.2     
  31 C31           -0.3161     7.7283    -0.5326 C.2     
  32 C32           -0.5113     6.4636    -0.9513 C.2     
  33 N33           -0.0431     5.6402     0.0404 N.pl3   
  34 C34           -0.6774     8.9771    -1.2948 C.3     
  35 H35            2.0426     0.5136     1.9261 H       
  36 H36            3.1572    -0.4381     0.9099 H       
  37 H37            2.6247     1.0242    -1.0350 H       
  38 H38            3.2543     1.9881     0.3270 H       
  39 H39           -2.1297     1.5976     0.0190 H       
  40 H40           -2.1668     4.0767     0.0353 H       
  41 H41            2.1717    -2.4186     0.7864 H       
  42 H42            1.7609    -2.1153    -1.6736 H       
  43 H43            1.1759    -3.6804    -1.0601 H       
  44 H44           -4.1804    -3.1869    -5.2860 H       
  45 H45           -3.6546    -1.4776    -5.4424 H       
  46 H46            1.3081    -3.5302    -3.1364 H       
  47 H47            0.7454    -4.2162    -5.4327 H       
  48 H48           -0.8779    -2.3720     0.9059 H       
  49 H49            0.1537    -3.7762     1.2692 H       
  50 H50            0.2165    -2.3329     2.3091 H       
  51 H51            0.8650     6.1025     1.9610 H       
  52 H52           -0.9521     6.1566    -1.8883 H       
  53 H53            0.1651     9.2797    -1.9167 H       
  54 H54           -1.5430     8.7793    -1.9270 H       
  55 H55           -0.9156     9.7756    -0.5921 H       
@<TRIPOS>BOND
   1    1    2 1
   2    1    3 1
   3    1    7 2
   4    2    4 am
   5    2   11 2
   6    3    6 1
   7    3   10 am
   8    4    5 1
   9    4   13 1
  10    5    6 1
  11    5   35 1
  12    5   36 1
  13    6   37 1
  14    6   38 1
  15    7    8 1
  16    7   39 1
  17    8    9 2
  18    8   40 1
  19    9   10 1
  20    9   33 1
  21   10   12 2
  22   13   14 1
  23   13   28 1
  24   13   41 1
  25   14   15 1
  26   14   42 1
  27   14   43 1
  28   15   21 1
  29   16   17 1
  30   16   20 1
  31   17   18 1
  32   17   26 1
  33   17   27 1
  34   18   19 1
  35   18   44 1
  36   18   45 1
  37   19   20 ar
  38   19   24 ar
  39   20   21 ar
  40   21   22 ar
  41   22   23 ar
  42   22   46 1
  43   23   24 ar
  44   23   47 1
  45   24   25 1
  46   28   48 1
  47   28   49 1
  48   28   50 1
  49   29   30 2
  50   29   33 1
  51   29   51 1
  52   30   31 1
  53   31   32 2
  54   31   34 1
  55   32   33 1
  56   32   52 1
  57   34   53 1
  58   34   54 1
  59   34   55 1

#	End of record

