#	Name: ASD02398022
#	Creating user name:	WinNT
#	Creation time:	15. 06. 2019 20:20

#	Modifying user name:	WinNT
#	Modification time:	15. 06. 2019 20:20

#	Program:	/corina/corina34_cracker 3.40 0067  02.08.2006

@<TRIPOS>MOLECULE
ASD02398022
  69   72    0    0    0
SMALL
NO_CHARGES


@<TRIPOS>ATOM
   1 C1             0.0026     1.3483    -0.1660 C.ar    
   2 C2             0.0654    -0.0415    -0.0254 C.ar    
   3 C3            -1.1093    -0.7731     0.1301 C.ar    
   4 C4            -2.3279    -0.1245     0.1448 C.ar    
   5 C5            -2.3869     1.2507     0.0055 C.ar    
   6 C6            -1.2266     1.9869    -0.1442 C.ar    
   7 C7            -3.5984    -0.9173     0.3126 C.3     
   8 C8            -4.3188    -0.4551     1.5530 C.2     
   9 O9            -3.8487     0.4276     2.2310 O.2     
  10 O10           -5.4827    -1.0239     1.9044 O.3     
  11 C11            1.3773    -0.7335    -0.0423 C.ar    
  12 C12            2.2851    -0.5373     0.9970 C.ar    
  13 C13            1.7043    -1.5867    -1.0943 C.ar    
  14 C14            2.9264    -2.2285    -1.1046 C.ar    
  15 C15            3.8255    -2.0259    -0.0734 C.ar    
  16 C16            3.5039    -1.1840     0.9763 C.ar    
  17 C17            1.9365     0.3799     2.1408 C.3     
  18 N18            2.9771     0.2959     3.1687 N.am    
  19 C19            4.1276     0.9829     3.1708 C.2     
  20 O20            4.9090     0.7263     4.2257 O.3     
  21 C21            4.2581    -0.2534     5.0856 C.3     
  22 C22            2.9264    -0.5515     4.3699 C.3     
  23 O23            4.4333     1.7669     2.2943 O.2     
  24 C24            2.8471    -2.0275     3.9750 C.3     
  25 C25            5.0960    -1.5014     5.1932 C.ar    
  26 C26            5.1080    -2.2265     6.3701 C.ar    
  27 C27            5.8482    -1.9241     4.1132 C.ar    
  28 C28            6.6169    -3.0688     4.2119 C.ar    
  29 C29            6.6336    -3.7906     5.3908 C.ar    
  30 C30            5.8766    -3.3712     6.4688 C.ar    
  31 O31            1.1433     2.0703    -0.3177 O.3     
  32 C32            1.0017     3.4856    -0.4556 C.3     
  33 C33           -6.1207    -0.5285     3.1110 C.3     
  34 C34           -7.4257    -1.2914     3.3479 C.3     
  35 C35           -4.4967    -0.7055    -0.9077 C.3     
  36 C36            5.1579    -2.7298    -0.0901 C.3     
  37 F37            5.2513    -3.5242    -1.2378 F       
  38 F38            6.1863    -1.7813    -0.0945 F       
  39 F39            5.2730    -3.5372     1.0466 F       
  40 H40           -1.0671    -1.8468     0.2388 H       
  41 H41           -3.3436     1.7516     0.0178 H       
  42 H42           -1.2790     3.0602    -0.2525 H       
  43 H43           -3.3564    -1.9760     0.4063 H       
  44 H44            1.0029    -1.7459    -1.8999 H       
  45 H45            3.1808    -2.8902    -1.9193 H       
  46 H46            4.2098    -1.0295     1.7789 H       
  47 H47            1.8675     1.4049     1.7766 H       
  48 H48            0.9792     0.0807     2.5676 H       
  49 H49            4.0714     0.1689     6.0729 H       
  50 H50            2.0821    -0.2775     5.0025 H       
  51 H51            2.8445    -2.6444     4.8736 H       
  52 H52            1.9315    -2.2039     3.4105 H       
  53 H53            3.7089    -2.2857     3.3595 H       
  54 H54            4.5171    -1.8985     7.2125 H       
  55 H55            5.8352    -1.3602     3.1922 H       
  56 H56            7.2040    -3.3994     3.3679 H       
  57 H57            7.2338    -4.6851     5.4678 H       
  58 H58            5.8897    -3.9351     7.3898 H       
  59 H59            1.9860     3.9399    -0.5690 H       
  60 H60            0.3963     3.7062    -1.3348 H       
  61 H61            0.5148     3.8903     0.4316 H       
  62 H62           -5.4544    -0.6756     3.9610 H       
  63 H63           -6.3364     0.5340     2.9979 H       
  64 H64           -8.0920    -1.1443     2.4979 H       
  65 H65           -7.2100    -2.3538     3.4609 H       
  66 H66           -7.9046    -0.9195     4.2536 H       
  67 H67           -4.7387     0.3531    -1.0013 H       
  68 H68           -3.9756    -1.0399    -1.8048 H       
  69 H69           -5.4157    -1.2790    -0.7863 H       
@<TRIPOS>BOND
   1    1    2 ar
   2    1   31 1
   3    1    6 ar
   4    2    3 ar
   5    2   11 1
   6    3    4 ar
   7    3   40 1
   8    4    5 ar
   9    4    7 1
  10    5    6 ar
  11    5   41 1
  12    6   42 1
  13    7    8 1
  14    7   35 1
  15    7   43 1
  16    8    9 2
  17    8   10 1
  18   10   33 1
  19   11   12 ar
  20   11   13 ar
  21   12   17 1
  22   12   16 ar
  23   13   14 ar
  24   13   44 1
  25   14   15 ar
  26   14   45 1
  27   15   16 ar
  28   15   36 1
  29   16   46 1
  30   17   18 1
  31   17   47 1
  32   17   48 1
  33   18   19 am
  34   18   22 1
  35   19   20 1
  36   19   23 2
  37   20   21 1
  38   21   22 1
  39   21   25 1
  40   21   49 1
  41   22   24 1
  42   22   50 1
  43   24   51 1
  44   24   52 1
  45   24   53 1
  46   25   26 ar
  47   25   27 ar
  48   26   30 ar
  49   26   54 1
  50   27   28 ar
  51   27   55 1
  52   28   29 ar
  53   28   56 1
  54   29   30 ar
  55   29   57 1
  56   30   58 1
  57   31   32 1
  58   32   59 1
  59   32   60 1
  60   32   61 1
  61   33   34 1
  62   33   62 1
  63   33   63 1
  64   34   64 1
  65   34   65 1
  66   34   66 1
  67   35   67 1
  68   35   68 1
  69   35   69 1
  70   36   37 1
  71   36   38 1
  72   36   39 1

#	End of record

