#	Name: ASD01420023
#	Creating user name:	WinNT
#	Creation time:	15. 06. 2019 19:20

#	Modifying user name:	WinNT
#	Modification time:	15. 06. 2019 19:20

#	Program:	/corina/corina34_cracker 3.40 0067  02.08.2006

@<TRIPOS>MOLECULE
ASD01420023
  28   28    0    0    0
SMALL
NO_CHARGES


@<TRIPOS>ATOM
   1 N1            -0.0169     1.3925     0.0097 N.pl3   
   2 C2             0.3655    -4.2480    -0.0231 C.3     
   3 N3             1.7832    -4.3469     0.3917 N.3     
   4 C4             2.3698    -3.0568    -0.0365 C.3     
   5 C5             1.2294    -2.0642    -0.0204 C.ar    
   6 C6             1.2132    -0.6837    -0.0132 C.ar    
   7 C7             0.0021    -0.0041     0.0020 C.ar    
   8 C8            -1.1906    -0.7167     0.0100 C.ar    
   9 C9            -1.1682    -2.0973     0.0028 C.ar    
  10 C10            0.0386    -2.7717    -0.0124 C.ar    
  11 H11            0.8165     1.8889     0.0044 H       
  12 H12           -0.8634     1.8660     0.0163 H       
  13 H13            0.2375    -4.6547    -1.0263 H       
  14 H14           -0.2716    -4.7798     0.6836 H       
  15 H15            1.8602    -4.4652     1.3908 H       
  16 H16            3.1483    -2.7473     0.6607 H       
  17 H17            2.7782    -3.1446    -1.0433 H       
  18 H18            2.1420    -0.1326    -0.0187 H       
  19 H19           -2.1341    -0.1914     0.0222 H       
  20 H20           -2.0952    -2.6513     0.0091 H       
  21 C21            9.3197     8.8771     7.5376 C.2     
  22 C22            9.3402     7.3703     7.5293 C.3     
  23 O23           10.3578     9.4954     7.5310 O.2     
  24 O24            8.1483     9.5324     7.5467 O.3     
  25 F25           10.6653     6.9220     7.5143 F       
  26 F26            8.6980     6.8889     8.6752 F       
  27 F27            8.6762     6.9012     6.3908 F       
  28 H28            8.1858    10.4987     7.5518 H       
@<TRIPOS>BOND
   1    1    7 1
   2    1   11 1
   3    1   12 1
   4    2    3 1
   5    2   10 1
   6    2   13 1
   7    2   14 1
   8    3    4 1
   9    3   15 1
  10    4    5 1
  11    4   16 1
  12    4   17 1
  13    5    6 ar
  14    5   10 ar
  15    6    7 ar
  16    6   18 1
  17    7    8 ar
  18    8    9 ar
  19    8   19 1
  20    9   10 ar
  21    9   20 1
  22   21   22 1
  23   21   23 2
  24   21   24 1
  25   22   25 1
  26   22   26 1
  27   22   27 1
  28   24   28 1

#	End of record

