#	Name: ASD01916050
#	Creating user name:	WinNT
#	Creation time:	15. 06. 2019 20:06

#	Modifying user name:	WinNT
#	Modification time:	15. 06. 2019 20:06

#	Program:	/corina/corina34_cracker 3.40 0067  02.08.2006

@<TRIPOS>MOLECULE
ASD01916050
  43   45    0    0    0
SMALL
NO_CHARGES


@<TRIPOS>ATOM
   1 C1            -0.0169     1.3974     0.0097 C.ar    
   2 C2             0.0021    -0.0041     0.0020 C.ar    
   3 C3            -1.2070    -0.6758     0.0095 C.ar    
   4 C4            -2.3852     0.0496     0.0241 C.ar    
   5 C5            -3.7040    -0.6796     0.0323 C.3     
   6 C6             1.2059     2.1425     0.0021 C.1     
   7 C7             2.2084     2.7534    -0.0042 C.1     
   8 C8             3.4313     3.4985    -0.0119 C.ar    
   9 C9             3.4022     4.8955    -0.0041 C.ar    
  10 C10            5.8331     3.5564    -0.0288 C.ar    
  11 C11            4.5840     5.6065    -0.0116 C.ar    
  12 N12           -2.3736     1.3687     0.0316 N.ar    
  13 C13           -1.2496     2.0547     0.0192 C.ar    
  14 C14            4.6594     2.8321    -0.0214 C.ar    
  15 C15            5.7965     4.9397    -0.0269 C.ar    
  16 C16           -4.1297    -1.0442    -1.4088 C.3     
  17 C17           -3.5658    -2.0160     0.7276 C.2     
  18 N18           -4.1791    -2.9748     0.0125 N.am    
  19 C19           -4.7922    -2.4243    -1.2019 C.3     
  20 C20           -4.2295    -4.3877     0.3964 C.3     
  21 O21           -2.9854    -2.1962     1.7772 O.2     
  22 C22           -6.3012    -2.2633    -1.0070 C.3     
  23 C23           -4.5060    -3.3337    -2.3985 C.3     
  24 H24            0.9365    -0.5454    -0.0098 H       
  25 H25           -1.2312    -1.7555     0.0035 H       
  26 H26           -4.4709    -0.0737     0.5149 H       
  27 H27            2.4566     5.4173     0.0074 H       
  28 H28            6.7831     3.0427    -0.0404 H       
  29 H29            4.5631     6.6863    -0.0060 H       
  30 H30           -1.2809     3.1342     0.0258 H       
  31 H31            4.6896     1.7525    -0.0227 H       
  32 H32            6.7187     5.5017    -0.0327 H       
  33 H33           -4.8469    -0.3216    -1.7983 H       
  34 H34           -3.2620    -1.1223    -2.0639 H       
  35 H35           -3.6986    -4.5276     1.3381 H       
  36 H36           -5.2685    -4.6949     0.5160 H       
  37 H37           -3.7590    -4.9920    -0.3792 H       
  38 H38           -6.4898    -1.6064    -0.1579 H       
  39 H39           -6.7395    -1.8300    -1.9060 H       
  40 H40           -6.7493    -3.2388    -0.8182 H       
  41 H41           -4.9410    -4.3170    -2.2198 H       
  42 H42           -4.9445    -2.9003    -3.2974 H       
  43 H43           -3.4285    -3.4317    -2.5309 H       
@<TRIPOS>BOND
   1    1    2 ar
   2    1    6 1
   3    1   13 ar
   4    2    3 ar
   5    2   24 1
   6    3    4 ar
   7    3   25 1
   8    4   12 ar
   9    4    5 1
  10    5   16 1
  11    5   17 1
  12    5   26 1
  13    6    7 3
  14    7    8 1
  15    8    9 ar
  16    8   14 ar
  17    9   11 ar
  18    9   27 1
  19   10   15 ar
  20   10   14 ar
  21   10   28 1
  22   11   15 ar
  23   11   29 1
  24   12   13 ar
  25   13   30 1
  26   14   31 1
  27   15   32 1
  28   16   19 1
  29   16   33 1
  30   16   34 1
  31   17   18 am
  32   17   21 2
  33   18   19 1
  34   18   20 1
  35   19   22 1
  36   19   23 1
  37   20   35 1
  38   20   36 1
  39   20   37 1
  40   22   38 1
  41   22   39 1
  42   22   40 1
  43   23   41 1
  44   23   42 1
  45   23   43 1

#	End of record

