#	Name: ASD02560116
#	Creating user name:	WinNT
#	Creation time:	15. 06. 2019 20:24

#	Modifying user name:	WinNT
#	Modification time:	15. 06. 2019 20:24

#	Program:	/corina/corina34_cracker 3.40 0067  02.08.2006

@<TRIPOS>MOLECULE
ASD02560116
  55   59    0    0    0
SMALL
NO_CHARGES


@<TRIPOS>ATOM
   1 N1             0.0962     1.3319     0.3973 N.2     
   2 N2            -0.1352     0.1304     0.2300 N.2     
   3 C3             1.5223     1.6292     0.2113 C.3     
   4 N4             2.1969     0.3085     0.2836 N.3     
   5 C5             1.0919    -0.6061    -0.1000 C.3     
   6 S6             1.1829    -2.1435     0.8584 S.3     
   7 C7             1.0325    -1.5661     2.5714 C.3     
   8 C8             1.0912    -2.7465     3.5064 C.2     
   9 O9             1.2217    -3.8671     3.0610 O.2     
  10 N10            0.9987    -2.5571     4.8376 N.am    
  11 Br11           1.8255     2.4575    -1.5458 Br      
  12 C12            3.2469     0.2334    -0.6292 C.ar    
  13 C13            0.9923    -3.6577     5.7024 C.ar    
  14 C14            0.3126    -3.5885     6.9129 C.ar    
  15 C15            0.3081    -4.6772     7.7638 C.ar    
  16 C16            0.9788    -5.8343     7.4117 C.ar    
  17 C17            1.6556    -5.9058     6.2083 C.ar    
  18 C18            1.6598    -4.8228     5.3505 C.ar    
  19 Cl19          -0.5290    -2.1360     7.3553 Cl      
  20 S20            0.9713    -7.2204     8.4996 S.o2    
  21 O21            2.1223    -7.9891     8.1781 O.2     
  22 O22            0.7174    -6.7080     9.8005 O.2     
  23 C23            4.3279     1.1373    -0.5472 C.ar    
  24 C24            3.2422    -0.7280    -1.6174 C.ar    
  25 C25            4.2860    -0.8114    -2.5339 C.ar    
  26 C26            5.3383     0.0511    -2.4813 C.ar    
  27 C27            5.3845     1.0422    -1.4861 C.ar    
  28 C28            6.4583     1.9463    -1.4085 C.ar    
  29 C29            6.4716     2.8943    -0.4324 C.ar    
  30 C30            5.4341     2.9838     0.4951 C.ar    
  31 C31            4.3751     2.1277     0.4462 C.ar    
  32 C32            6.4559    -0.0609    -3.4861 C.3     
  33 Cl33           5.4889     4.2077     1.7250 Cl      
  34 O34           -0.2330    -8.0752     8.1318 O.3     
  35 C35            7.2342    -1.3773    -3.5332 C.3     
  36 C36            6.2585    -1.0249    -4.6577 C.3     
  37 H37            1.8807     2.2826     1.0067 H       
  38 H38            1.1302    -0.8206    -1.1680 H       
  39 H39            1.8508    -0.8824     2.7976 H       
  40 H40            0.0814    -1.0490     2.6984 H       
  41 H41            0.9367    -1.6580     5.1963 H       
  42 H42           -0.2194    -4.6244     8.7047 H       
  43 H43            2.1787    -6.8108     5.9368 H       
  44 H44            2.1888    -4.8797     4.4107 H       
  45 H45            2.4193    -1.4246    -1.6806 H       
  46 H46            4.2612    -1.5730    -3.2992 H       
  47 H47            7.2688     1.8884    -2.1198 H       
  48 H48            7.2980     3.5873    -0.3749 H       
  49 H49            3.5780     2.2083     1.1704 H       
  50 H50            7.0095     0.8582    -3.6780 H       
  51 H51           -0.3316    -8.8699     8.6740 H       
  52 H52            8.2998    -1.3242    -3.7564 H       
  53 H53            6.9380    -2.1623    -2.8374 H       
  54 H54            5.3203    -1.5781    -4.7017 H       
  55 H55            6.6821    -0.7400    -5.6208 H       
@<TRIPOS>BOND
   1    1    2 2
   2    1    3 1
   3    2    5 1
   4    3    4 1
   5    3   11 1
   6    3   37 1
   7    4    5 1
   8    4   12 1
   9    5    6 1
  10    5   38 1
  11    6    7 1
  12    7    8 1
  13    7   39 1
  14    7   40 1
  15    8    9 2
  16    8   10 am
  17   10   13 1
  18   10   41 1
  19   12   23 ar
  20   12   24 ar
  21   13   14 ar
  22   13   18 ar
  23   14   15 ar
  24   14   19 1
  25   15   16 ar
  26   15   42 1
  27   16   17 ar
  28   16   20 1
  29   17   18 ar
  30   17   43 1
  31   18   44 1
  32   20   21 2
  33   20   22 2
  34   20   34 1
  35   23   27 ar
  36   23   31 ar
  37   24   25 ar
  38   24   45 1
  39   25   26 ar
  40   25   46 1
  41   26   27 ar
  42   26   32 1
  43   27   28 ar
  44   28   29 ar
  45   28   47 1
  46   29   30 ar
  47   29   48 1
  48   30   31 ar
  49   30   33 1
  50   31   49 1
  51   32   35 1
  52   32   36 1
  53   32   50 1
  54   34   51 1
  55   35   36 1
  56   35   52 1
  57   35   53 1
  58   36   54 1
  59   36   55 1

#	End of record

