#	Name: ASD02198288
#	Creating user name:	WinNT
#	Creation time:	15. 06. 2019 20:19

#	Modifying user name:	WinNT
#	Modification time:	15. 06. 2019 20:19

#	Program:	/corina/corina34_cracker 3.40 0067  02.08.2006

@<TRIPOS>MOLECULE
ASD02198288
  42   44    0    0    0
SMALL
NO_CHARGES


@<TRIPOS>ATOM
   1 C1            -0.0167     1.3799     0.0096 C.2     
   2 C2             0.0021    -0.0041     0.0020 C.2     
   3 S3             1.6544     1.9377    -0.0033 S.3     
   4 C4             2.2112     0.3224    -0.0173 C.2     
   5 N5             1.2119    -0.5125    -0.0123 N.2     
   6 N6            -1.1462    -0.7784     0.0088 N.pl3   
   7 C7            -1.1641     2.1948     0.0198 C.2     
   8 O8            -2.2731     1.6867     0.0225 O.2     
   9 C9            -1.0256     3.6646     0.0271 C.2     
  10 N10            3.5365    -0.0463    -0.0315 N.pl3   
  11 C11            3.9020    -1.4650    -0.0427 C.3     
  12 C12           -2.0378     4.5828     0.0371 C.2     
  13 C13           -1.3616     5.8327     0.0405 C.2     
  14 N14           -0.0808     5.5582     0.0326 N.2     
  15 O15            0.1229     4.3668     0.0310 O.3     
  16 C16           -1.9830     7.1807     0.0502 C.ar    
  17 C17           -1.1809     8.3197     0.0524 C.ar    
  18 C18           -3.3703     7.3107     0.0512 C.ar    
  19 C19           -3.9435     8.5669     0.0603 C.ar    
  20 C20           -3.1409     9.6966     0.0678 C.ar    
  21 C21           -1.7626     9.5714     0.0615 C.ar    
  22 C22            5.4260    -1.5989    -0.0574 C.3     
  23 Cl23          -3.8665    11.2736     0.0786 Cl      
  24 Cl24          -5.6717     8.7313     0.0616 Cl      
  25 C25            5.8094    -3.0757     0.0566 C.3     
  26 C26            5.9754    -1.0290    -1.3668 C.3     
  27 H27           -2.0179    -0.3531     0.0194 H       
  28 H28           -1.0787    -1.7460     0.0030 H       
  29 H29            4.2289     0.6329    -0.0342 H       
  30 H30            3.5032    -1.9499     0.8483 H       
  31 H31            3.4869    -1.9401    -0.9315 H       
  32 H32           -3.1024     4.4010     0.0411 H       
  33 H33           -0.1052     8.2235     0.0475 H       
  34 H34           -3.9961     6.4306     0.0446 H       
  35 H35           -1.1410    10.4546     0.0678 H       
  36 H36            5.8473    -1.0481     0.7836 H       
  37 H37            5.3881    -3.6264    -0.7844 H       
  38 H38            6.8952    -3.1710     0.0461 H       
  39 H39            5.4180    -3.4816     0.9895 H       
  40 H40            7.0612    -1.1244    -1.3773 H       
  41 H41            5.5541    -1.5798    -2.2078 H       
  42 H42            5.7023     0.0231    -1.4481 H       
@<TRIPOS>BOND
   1    1    2 2
   2    1    3 1
   3    1    7 1
   4    2    6 1
   5    2    5 1
   6    3    4 1
   7    4    5 2
   8    4   10 1
   9    6   27 1
  10    6   28 1
  11    7    8 2
  12    7    9 1
  13    9   12 2
  14    9   15 1
  15   10   11 1
  16   10   29 1
  17   11   22 1
  18   11   30 1
  19   11   31 1
  20   12   13 1
  21   12   32 1
  22   13   14 2
  23   13   16 1
  24   14   15 1
  25   16   17 ar
  26   16   18 ar
  27   17   21 ar
  28   17   33 1
  29   18   19 ar
  30   18   34 1
  31   19   20 ar
  32   19   24 1
  33   20   21 ar
  34   20   23 1
  35   21   35 1
  36   22   25 1
  37   22   26 1
  38   22   36 1
  39   25   37 1
  40   25   38 1
  41   25   39 1
  42   26   40 1
  43   26   41 1
  44   26   42 1

#	End of record

