#	Name: ASD00070024
#	Creating user name:	WinNT
#	Creation time:	15. 06. 2019 18:29

#	Modifying user name:	WinNT
#	Modification time:	15. 06. 2019 18:29

#	Program:	/corina/corina34_cracker 3.40 0067  02.08.2006

@<TRIPOS>MOLECULE
ASD00070024
  71   76    0    0    0
SMALL
NO_CHARGES


@<TRIPOS>ATOM
   1 O1            -0.0174     1.4354     0.0099 O.3     
   2 C2             0.0021    -0.0041     0.0020 C.3     
   3 O3             1.2438    -0.3266    -0.6516 O.3     
   4 C4             2.0691     0.7335    -0.4081 C.ar    
   5 C5             1.2912     1.8185    -0.0005 C.ar    
   6 C6             3.4405     0.8644    -0.5021 C.ar    
   7 C7             4.0472     2.0838    -0.1884 C.ar    
   8 C8             3.2633     3.1655     0.2189 C.ar    
   9 C9             1.8951     3.0290     0.3108 C.ar    
  10 C10            5.5130     2.2278    -0.2870 C.2     
  11 O11            6.1940     1.2850    -0.6414 O.2     
  12 N12            6.0963     3.4045     0.0159 N.am    
  13 C13            7.5510     3.5474    -0.0820 C.3     
  14 C14            7.9049     5.0189    -0.3069 C.3     
  15 C15            9.4241     5.1682    -0.4091 C.3     
  16 C16           10.0729     4.6801     0.8878 C.3     
  17 C17            9.7191     3.2087     1.1127 C.3     
  18 C18            8.1998     3.0594     1.2149 C.3     
  19 C19           11.5922     4.8295     0.7856 C.3     
  20 C20           12.2322     4.4594     2.1251 C.3     
  21 N21           13.6909     4.6028     2.0270 N.3     
  22 C22           14.3211     4.4878     3.3484 C.3     
  23 C23           15.8174     4.7859     3.2292 C.3     
  24 C24           16.4540     3.7943     2.2514 C.3     
  25 C25           15.7476     3.9002     0.8970 C.3     
  26 C26           14.2533     3.6278     1.0839 C.3     
  27 O27           20.9944     2.4207     2.6654 O.3     
  28 C28           20.1942     1.2265     2.6838 C.3     
  29 C29           18.7711     1.7715     2.9507 C.3     
  30 C30           18.8720     3.1861     2.4136 C.ar    
  31 C31           20.2241     3.4721     2.2724 C.ar    
  32 C32           17.9158     4.1204     2.0839 C.ar    
  33 C33           18.2975     5.3587     1.5981 C.ar    
  34 C34           19.6398     5.6523     1.4459 C.ar    
  35 C35           20.5997     4.7187     1.7787 C.ar    
  36 H36           -0.0068    -0.3927     1.0203 H       
  37 H37           -0.8422    -0.3953    -0.5656 H       
  38 H38            4.0435     0.0256    -0.8171 H       
  39 H39            3.7294     4.1089     0.4620 H       
  40 H40            1.2906     3.8668     0.6257 H       
  41 H41            5.5530     4.1566     0.2986 H       
  42 H42            7.9191     2.9533    -0.9184 H       
  43 H43            7.4426     5.3666    -1.2308 H       
  44 H44            7.5368     5.6130     0.5295 H       
  45 H45            9.7922     4.5741    -1.2455 H       
  46 H46            9.6762     6.2165    -0.5693 H       
  47 H47            9.7049     5.2743     1.7242 H       
  48 H48           10.0871     2.6145     0.2763 H       
  49 H49           10.1813     2.8610     2.0366 H       
  50 H50            7.8318     3.6535     2.0513 H       
  51 H51            7.9477     2.0111     1.3751 H       
  52 H52           11.9708     4.1675     0.0068 H       
  53 H53           11.8399     5.8615     0.5373 H       
  54 H54           11.8536     5.1215     2.9039 H       
  55 H55           11.9845     3.4274     2.3734 H       
  56 H56           13.8621     5.2012     4.0330 H       
  57 H57           14.1815     3.4766     3.7306 H       
  58 H58           15.9578     5.8019     2.8601 H       
  59 H59           16.2876     4.6852     4.2074 H       
  60 H60           16.3480     2.7812     2.6393 H       
  61 H61           15.8869     4.9022     0.4913 H       
  62 H62           16.1680     3.1667     0.2090 H       
  63 H63           14.1141     2.6206     1.4767 H       
  64 H64           13.7451     3.7165     0.1237 H       
  65 H65           20.2383     0.7172     1.7211 H       
  66 H66           20.5104     0.5622     3.4881 H       
  67 H67           18.0248     1.1982     2.4007 H       
  68 H68           18.5490     1.7749     4.0179 H       
  69 H69           17.5494     6.0931     1.3384 H       
  70 H70           19.9387     6.6174     1.0643 H       
  71 H71           21.6462     4.9562     1.6570 H       
@<TRIPOS>BOND
   1    1    2 1
   2    1    5 1
   3    2    3 1
   4    2   36 1
   5    2   37 1
   6    3    4 1
   7    4    5 ar
   8    4    6 ar
   9    5    9 ar
  10    6    7 ar
  11    6   38 1
  12    7    8 ar
  13    7   10 1
  14    8    9 ar
  15    8   39 1
  16    9   40 1
  17   10   11 2
  18   10   12 am
  19   12   13 1
  20   12   41 1
  21   13   14 1
  22   13   18 1
  23   13   42 1
  24   14   15 1
  25   14   43 1
  26   14   44 1
  27   15   16 1
  28   15   45 1
  29   15   46 1
  30   16   17 1
  31   16   19 1
  32   16   47 1
  33   17   18 1
  34   17   48 1
  35   17   49 1
  36   18   50 1
  37   18   51 1
  38   19   20 1
  39   19   52 1
  40   19   53 1
  41   20   21 1
  42   20   54 1
  43   20   55 1
  44   21   22 1
  45   21   26 1
  46   22   23 1
  47   22   56 1
  48   22   57 1
  49   23   24 1
  50   23   58 1
  51   23   59 1
  52   24   25 1
  53   24   32 1
  54   24   60 1
  55   25   26 1
  56   25   61 1
  57   25   62 1
  58   26   63 1
  59   26   64 1
  60   27   28 1
  61   27   31 1
  62   28   29 1
  63   28   65 1
  64   28   66 1
  65   29   30 1
  66   29   67 1
  67   29   68 1
  68   30   31 ar
  69   30   32 ar
  70   31   35 ar
  71   32   33 ar
  72   33   34 ar
  73   33   69 1
  74   34   35 ar
  75   34   70 1
  76   35   71 1

#	End of record

