#	Name: ASD07300608
#	Creating user name:	WinNT
#	Creation time:	15. 06. 2019 21:10

#	Modifying user name:	WinNT
#	Modification time:	15. 06. 2019 21:10

#	Program:	/corina/corina34_cracker 3.40 0067  02.08.2006

@<TRIPOS>MOLECULE
ASD07300608
  51   55    0    0    0
SMALL
NO_CHARGES


@<TRIPOS>ATOM
   1 C1            -0.0173     1.4131    -0.0100 C.2     
   2 C2             0.0021    -0.0041     0.0020 C.2     
   3 N3             1.1782     2.0870    -0.0172 N.pl3   
   4 N4             1.1570    -0.6390     0.0060 N.2     
   5 C5             2.3160     0.0274    -0.0010 C.2     
   6 C6             2.3491     1.3748    -0.0122 C.2     
   7 N7            -0.9983     2.3007    -0.0112 N.2     
   8 C8            -0.4872     3.5285    -0.0251 C.2     
   9 C9             0.8872     3.4237    -0.0283 C.2     
  10 C10            3.6180     6.5618    -0.0557 C.ar    
  11 N11            2.5775     6.6074    -0.8750 N.ar    
  12 C12            1.6879     5.6308    -0.8968 C.ar    
  13 C13            1.8578     4.5387    -0.0382 C.ar    
  14 C14            2.9701     4.5299     0.8109 C.ar    
  15 N15            3.8141     5.5456     0.7720 N.ar    
  16 N16            4.5301     7.6036    -0.0689 N.3     
  17 C17            5.6078     7.3727     0.9040 C.3     
  18 C18            6.6225     8.5156     0.8143 C.3     
  19 O19            5.9522     9.7598     1.0340 O.3     
  20 C20            4.8969    10.0173     0.1038 C.3     
  21 C21            3.8647     8.8895     0.1863 C.3     
  22 N22           -1.1861    -0.7177     0.0100 N.pl3   
  23 C23           -1.1896    -2.1845    -0.1073 C.3     
  24 C24           -2.0522    -2.7579     1.0227 C.3     
  25 O25           -3.3301    -2.1170     1.0109 O.3     
  26 C26           -3.2810    -0.7092     1.2547 C.3     
  27 C27           -2.4810    -0.0313     0.1422 C.3     
  28 C28           -1.2750     4.8131    -0.0317 C.3     
  29 H29            3.2441    -0.5248     0.0029 H       
  30 H30            3.2969     1.8925    -0.0179 H       
  31 H31            0.8421     5.6747    -1.5669 H       
  32 H32            3.1362     3.7051     1.4880 H       
  33 H33            5.1887     7.3361     1.9096 H       
  34 H34            6.1032     6.4278     0.6809 H       
  35 H35            7.3932     8.3785     1.5728 H       
  36 H36            7.0807     8.5187    -0.1747 H       
  37 H37            4.4195    10.9662     0.3484 H       
  38 H38            5.3050    10.0640    -0.9059 H       
  39 H39            3.0878     9.0519    -0.5608 H       
  40 H40            3.4178     8.8772     1.1804 H       
  41 H41           -1.6072    -2.4747    -1.0714 H       
  42 H42           -0.1709    -2.5622    -0.0194 H       
  43 H43           -2.1812    -3.8300     0.8742 H       
  44 H44           -1.5638    -2.5784     1.9805 H       
  45 H45           -4.2941    -0.3073     1.2730 H       
  46 H46           -2.7971    -0.5223     2.2133 H       
  47 H47           -2.3172     1.0161     0.3953 H       
  48 H48           -3.0310    -0.1010    -0.7963 H       
  49 H49           -1.4584     5.1322     0.9943 H       
  50 H50           -0.7096     5.5834    -0.5562 H       
  51 H51           -2.2269     4.6529    -0.5380 H       
@<TRIPOS>BOND
   1    1    2 1
   2    1    3 1
   3    1    7 2
   4    2    4 2
   5    2   22 1
   6    3    6 1
   7    3    9 1
   8    4    5 1
   9    5    6 2
  10    5   29 1
  11    6   30 1
  12    7    8 1
  13    8    9 2
  14    8   28 1
  15    9   13 1
  16   10   11 ar
  17   10   15 ar
  18   10   16 1
  19   11   12 ar
  20   12   13 ar
  21   12   31 1
  22   13   14 ar
  23   14   15 ar
  24   14   32 1
  25   16   17 1
  26   16   21 1
  27   17   18 1
  28   17   33 1
  29   17   34 1
  30   18   19 1
  31   18   35 1
  32   18   36 1
  33   19   20 1
  34   20   21 1
  35   20   37 1
  36   20   38 1
  37   21   39 1
  38   21   40 1
  39   22   23 1
  40   22   27 1
  41   23   24 1
  42   23   41 1
  43   23   42 1
  44   24   25 1
  45   24   43 1
  46   24   44 1
  47   25   26 1
  48   26   27 1
  49   26   45 1
  50   26   46 1
  51   27   47 1
  52   27   48 1
  53   28   49 1
  54   28   50 1
  55   28   51 1

#	End of record

