#	Name: ASD01880204
#	Creating user name:	WinNT
#	Creation time:	15. 06. 2019 19:40

#	Modifying user name:	WinNT
#	Modification time:	15. 06. 2019 19:40

#	Program:	/corina/corina34_cracker 3.40 0067  02.08.2006

@<TRIPOS>MOLECULE
ASD01880204
  47   51    0    0    0
SMALL
NO_CHARGES


@<TRIPOS>ATOM
   1 C1             0.2591     1.4872    -0.0098 C.2     
   2 C2             0.0205    -0.0004     0.0231 C.3     
   3 N3             0.1844    -0.4924     1.3975 N.3     
   4 C4            -0.1382    -1.9398     1.4869 C.3     
   5 C5            -0.4500    -2.1774     2.9801 C.3     
   6 C6            -0.8778    -0.7989     3.5245 C.3     
   7 C7            -0.7884     0.1556     2.3145 C.3     
   8 C8            -1.8840    -1.9498     3.4626 C.3     
   9 H9            -0.5269    -0.4278     4.4875 H       
  10 H10            0.2192    -2.8325     3.5378 H       
  11 C11           -2.2943    -2.5996     4.7856 C.3     
  12 O12           -3.6873    -2.3770     5.0138 O.3     
  13 C13           -4.2158    -2.8931     6.1545 C.ar    
  14 C14           -5.5618    -2.7146     6.4394 C.ar    
  15 C15           -6.0967    -3.2401     7.5996 C.ar    
  16 C16           -5.2917    -3.9435     8.4766 C.ar    
  17 C17           -3.9499    -4.1223     8.1952 C.ar    
  18 C18           -3.4116    -3.6041     7.0333 C.ar    
  19 N19           -0.6756     2.3939     0.0332 N.2     
  20 C20           -0.1171     3.6248    -0.0150 C.ar    
  21 C21            1.2774     3.4421    -0.0940 C.ar    
  22 N22            1.4811     2.0781    -0.0826 N.pl3   
  23 C23           -0.6122     4.9340    -0.0024 C.ar    
  24 C24            0.2720     5.9733    -0.0668 C.ar    
  25 N25            1.5762     5.7669    -0.1407 N.ar    
  26 C26            2.0986     4.5565    -0.1560 C.ar    
  27 C27            2.7744     1.3928    -0.1463 C.3     
  28 H28           -0.9915    -0.2138    -0.3210 H       
  29 H29            0.7384    -0.4980    -0.6289 H       
  30 H30           -1.0092    -2.1737     0.8748 H       
  31 H31            0.7174    -2.5398     1.1771 H       
  32 H32           -0.4224     1.1333     2.6277 H       
  33 H33           -1.7612     0.2497     1.8318 H       
  34 H34           -2.6659    -1.8933     2.7053 H       
  35 H35           -2.1004    -3.6713     4.7396 H       
  36 H36           -1.7180    -2.1608     5.6001 H       
  37 H37           -6.1909    -2.1650     5.7548 H       
  38 H38           -7.1443    -3.1012     7.8220 H       
  39 H39           -5.7118    -4.3535     9.3831 H       
  40 H40           -3.3231    -4.6715     8.8822 H       
  41 H41           -2.3634    -3.7440     6.8139 H       
  42 H42           -1.6746     5.1192     0.0568 H       
  43 H43           -0.1025     6.9862    -0.0576 H       
  44 H44            3.1698     4.4332    -0.2173 H       
  45 H45            3.1927     1.3124     0.8571 H       
  46 H46            2.6370     0.3954    -0.5637 H       
  47 H47            3.4558     1.9610    -0.7795 H       
@<TRIPOS>BOND
   1    1    2 1
   2    1   19 2
   3    1   22 1
   4    2    3 1
   5    2   28 1
   6    2   29 1
   7    3    4 1
   8    3    7 1
   9    4    5 1
  10    4   30 1
  11    4   31 1
  12    5    6 1
  13    5   10 1
  14    5    8 1
  15    6    7 1
  16    6    9 1
  17    6    8 1
  18    7   32 1
  19    7   33 1
  20    8   11 1
  21    8   34 1
  22   11   12 1
  23   11   35 1
  24   11   36 1
  25   12   13 1
  26   13   14 ar
  27   13   18 ar
  28   14   15 ar
  29   14   37 1
  30   15   16 ar
  31   15   38 1
  32   16   17 ar
  33   16   39 1
  34   17   18 ar
  35   17   40 1
  36   18   41 1
  37   19   20 1
  38   20   21 ar
  39   20   23 ar
  40   21   22 1
  41   21   26 ar
  42   22   27 1
  43   23   24 ar
  44   23   42 1
  45   24   25 ar
  46   24   43 1
  47   25   26 ar
  48   26   44 1
  49   27   45 1
  50   27   46 1
  51   27   47 1

#	End of record

