#	Name: ASD01903061
#	Creating user name:	WinNT
#	Creation time:	15. 06. 2019 19:54

#	Modifying user name:	WinNT
#	Modification time:	15. 06. 2019 19:54

#	Program:	/corina/corina34_cracker 3.40 0067  02.08.2006

@<TRIPOS>MOLECULE
ASD01903061
  30   32    0    0    0
SMALL
NO_CHARGES


@<TRIPOS>ATOM
   1 C1             0.0479     1.2770    -0.3291 C.2     
   2 N2             0.0308    -0.0115    -0.1731 N.2     
   3 C3            -1.0699    -0.6477    -0.5484 C.2     
   4 C4            -2.0431     0.1298    -1.0499 C.2     
   5 S5            -1.4843     1.8008    -1.0216 S.3     
   6 C6            -1.2166    -2.1207    -0.4233 C.2     
   7 N7             1.1044     2.1109     0.0029 N.pl3   
   8 C8            -0.2843    -2.9839     0.0721 C.2     
   9 N9            -0.8070    -4.2271     0.0130 N.pl3   
  10 N10           -2.0936    -4.1345    -0.5316 N.2     
  11 C11           -2.3459    -2.8781    -0.7889 C.2     
  12 C12            0.9572     3.4987    -0.0939 C.ar    
  13 C13            1.9868     4.2739    -0.6168 C.ar    
  14 C14            1.8383     5.6454    -0.7116 C.ar    
  15 C15            0.6676     6.2465    -0.2872 C.ar    
  16 C16           -0.3596     5.4775     0.2339 C.ar    
  17 C17           -0.2191     4.1044     0.3265 C.ar    
  18 F18            3.1312     3.6875    -1.0312 F       
  19 F19           -1.5020     6.0684     0.6475 F       
  20 C20            1.0820    -2.6166     0.5910 C.3     
  21 H21           -3.0048    -0.2100    -1.4051 H       
  22 H22            1.9457     1.7321     0.3022 H       
  23 H23           -0.3673    -5.0434     0.2981 H       
  24 H24           -3.2592    -2.4892    -1.2144 H       
  25 H25            2.6377     6.2477    -1.1172 H       
  26 H26            0.5542     7.3179    -0.3620 H       
  27 H27           -1.0205     3.5051     0.7329 H       
  28 H28            1.0211    -2.4083     1.6592 H       
  29 H29            1.7700    -3.4447     0.4209 H       
  30 H30            1.4432    -1.7309     0.0682 H       
@<TRIPOS>BOND
   1    1    2 2
   2    1    7 1
   3    1    5 1
   4    2    3 1
   5    3    4 2
   6    3    6 1
   7    4    5 1
   8    4   21 1
   9    6    8 2
  10    6   11 1
  11    7   12 1
  12    7   22 1
  13    8    9 1
  14    8   20 1
  15    9   10 1
  16    9   23 1
  17   10   11 2
  18   11   24 1
  19   12   13 ar
  20   12   17 ar
  21   13   14 ar
  22   13   18 1
  23   14   15 ar
  24   14   25 1
  25   15   16 ar
  26   15   26 1
  27   16   17 ar
  28   16   19 1
  29   17   27 1
  30   20   28 1
  31   20   29 1
  32   20   30 1

#	End of record

