#	Name: ASD03330931
#	Creating user name:	WinNT
#	Creation time:	15. 06. 2019 20:38

#	Modifying user name:	WinNT
#	Modification time:	15. 06. 2019 20:38

#	Program:	/corina/corina34_cracker 3.40 0067  02.08.2006

@<TRIPOS>MOLECULE
ASD03330931
  67   70    0    0    0
SMALL
NO_CHARGES


@<TRIPOS>ATOM
   1 N1            -0.1143     1.2726     0.4300 N.pl3   
   2 C2            -0.0295    -0.0795     0.3153 C.2     
   3 C3             1.2461    -0.8806     0.2993 C.3     
   4 N4             2.1115    -0.4315     1.4010 N.3     
   5 C5             2.9739     0.6746     0.9808 C.3     
   6 C6             2.2645     1.5637    -0.0365 C.3     
   7 C7             1.0187     2.1868     0.5990 C.3     
   8 C8            -1.4363     1.6056     0.3704 C.2     
   9 N9            -2.1401     0.5053     0.2426 N.2     
  10 C10           -1.3015    -0.5535     0.2083 C.2     
  11 C11           -1.6933    -1.9681     0.0778 C.2     
  12 O12           -0.8413    -2.8358     0.0584 O.2     
  13 N13           -2.9958    -2.3003    -0.0201 N.am    
  14 C14            2.9066    -1.5459     1.9338 C.3     
  15 C15           -4.7250    -3.7957    -0.8342 C.2     
  16 C16           -3.3853    -3.7066    -0.1498 C.3     
  17 C17           -3.4793    -4.3400     1.2398 C.3     
  18 C18           -4.0182    -5.7665     1.1146 C.3     
  19 O19           -5.5738    -2.9571    -0.6170 O.2     
  20 C20           -2.0901    -4.3740     1.8798 C.3     
  21 C21           -4.4237    -3.5130     2.1144 C.3     
  22 N22           -4.9798    -4.8073    -1.6875 N.am    
  23 C23           -6.2724    -5.0784    -2.3335 C.3     
  24 C24           -6.0959    -6.3443    -3.1983 C.3     
  25 C25           -4.8710    -7.0409    -2.5488 C.3     
  26 C26           -4.0069    -5.8215    -2.1328 C.3     
  27 F27           -7.2293    -7.1604    -3.1183 F       
  28 F28           -5.8235    -6.0019    -4.5271 F       
  29 C29           -1.9845     2.9776     0.4388 C.ar    
  30 C30           -2.9538     3.3926    -0.4784 C.ar    
  31 C31           -3.4620     4.6760    -0.4081 C.ar    
  32 C32           -3.0130     5.5479     0.5669 C.ar    
  33 C33           -2.0525     5.1424     1.4779 C.ar    
  34 C34           -1.5406     3.8611     1.4226 C.ar    
  35 F35           -3.3927     2.5416    -1.4315 F       
  36 Cl36          -1.4952     6.2455     2.6971 Cl      
  37 H37            1.0139    -1.9380     0.4262 H       
  38 H38            1.7586    -0.7306    -0.6510 H       
  39 H39            3.2415     1.2713     1.8529 H       
  40 H40            3.8814     0.2706     0.5322 H       
  41 H41            2.9407     2.3551    -0.3599 H       
  42 H42            1.9706     0.9648    -0.8985 H       
  43 H43            0.7969     3.1361     0.1115 H       
  44 H44            1.1965     2.3542     1.6613 H       
  45 H45           -3.6753    -1.6083    -0.0046 H       
  46 H46            3.4807    -2.0010     1.1267 H       
  47 H47            3.5877    -1.1731     2.6988 H       
  48 H48            2.2414    -2.2904     2.3711 H       
  49 H49           -2.6392    -4.2372    -0.7412 H       
  50 H50           -3.3048    -6.3772     0.5613 H       
  51 H51           -4.1634    -6.1886     2.1090 H       
  52 H52           -4.9704    -5.7499     0.5843 H       
  53 H53           -1.7061    -3.3578     1.9690 H       
  54 H54           -2.1570    -4.8253     2.8698 H       
  55 H55           -1.4173    -4.9632     1.2567 H       
  56 H56           -5.4135    -3.4887     1.6584 H       
  57 H57           -4.4907    -3.9642     3.1044 H       
  58 H58           -4.0398    -2.4967     2.2036 H       
  59 H59           -7.0366    -5.2508    -1.5756 H       
  60 H60           -6.5559    -4.2355    -2.9637 H       
  61 H61           -5.1701    -7.6267    -1.6796 H       
  62 H62           -4.3445    -7.6614    -3.2739 H       
  63 H63           -3.4351    -5.4509    -2.9835 H       
  64 H64           -3.3393    -6.0917    -1.3146 H       
  65 H65           -4.2109     4.9987    -1.1162 H       
  66 H66           -3.4131     6.5498     0.6177 H       
  67 H67           -0.7949     3.5450     2.1371 H       
@<TRIPOS>BOND
   1    1    2 1
   2    1    7 1
   3    1    8 1
   4    2    3 1
   5    2   10 2
   6    3    4 1
   7    3   37 1
   8    3   38 1
   9    4    5 1
  10    4   14 1
  11    5    6 1
  12    5   39 1
  13    5   40 1
  14    6    7 1
  15    6   41 1
  16    6   42 1
  17    7   43 1
  18    7   44 1
  19    8    9 2
  20    8   29 1
  21    9   10 1
  22   10   11 1
  23   11   12 2
  24   11   13 am
  25   13   16 1
  26   13   45 1
  27   14   46 1
  28   14   47 1
  29   14   48 1
  30   15   19 2
  31   15   22 am
  32   15   16 1
  33   16   17 1
  34   16   49 1
  35   17   18 1
  36   17   20 1
  37   17   21 1
  38   18   50 1
  39   18   51 1
  40   18   52 1
  41   20   53 1
  42   20   54 1
  43   20   55 1
  44   21   56 1
  45   21   57 1
  46   21   58 1
  47   22   23 1
  48   22   26 1
  49   23   24 1
  50   23   59 1
  51   23   60 1
  52   24   25 1
  53   24   27 1
  54   24   28 1
  55   25   26 1
  56   25   61 1
  57   25   62 1
  58   26   63 1
  59   26   64 1
  60   29   30 ar
  61   29   34 ar
  62   30   31 ar
  63   30   35 1
  64   31   32 ar
  65   31   65 1
  66   32   33 ar
  67   32   66 1
  68   33   34 ar
  69   33   36 1
  70   34   67 1

#	End of record

