#	Name: ASD01885149
#	Creating user name:	WinNT
#	Creation time:	15. 06. 2019 19:49

#	Modifying user name:	WinNT
#	Modification time:	15. 06. 2019 19:49

#	Program:	/corina/corina34_cracker 3.40 0067  02.08.2006

@<TRIPOS>MOLECULE
ASD01885149
  58   63    0    0    0
SMALL
NO_CHARGES


@<TRIPOS>ATOM
   1 C1             0.0831     1.3294     0.5651 C.2     
   2 C2             1.1003    -0.5718    -0.4618 C.2     
   3 C3             2.2972     0.1586    -0.5588 C.2     
   4 C4             2.3610     1.4273    -0.1033 C.2     
   5 N5             1.2666     2.0178     0.4567 N.pl3   
   6 C6             1.0320     3.2477     0.9894 C.2     
   7 N7            -0.2145     3.2740     1.3849 N.2     
   8 N8            -0.7858     2.1484     1.1350 N.2     
   9 C9             2.0270     4.3737     1.1038 C.3     
  10 C10            1.0351    -1.9882    -0.9722 C.3     
  11 C11            1.9632     5.2406    -0.1553 C.3     
  12 N12            0.7311    -1.9773    -2.4094 N.3     
  13 C13            0.0010     0.0048     0.0944 C.2     
  14 C14           -1.2896    -0.7653     0.2060 C.3     
  15 C15            2.8180     6.5092    -0.1836 C.3     
  16 C16            3.2133     5.3013    -1.0353 C.3     
  17 F17           -1.2101    -1.6550     1.2827 F       
  18 F18           -2.3477     0.1258     0.4146 F       
  19 F19           -1.5090    -1.4814    -0.9756 F       
  20 C20            0.8936    -3.3311    -2.9980 C.3     
  21 C21            1.0746    -3.0820    -4.5098 C.3     
  22 C22            1.7044    -1.1374    -3.1529 C.3     
  23 C23            2.2280    -3.9675    -5.0256 C.3     
  24 N24            3.0283    -3.0728    -5.9001 N.3     
  25 C25            3.0387    -1.7737    -5.1805 C.3     
  26 C26            1.6116    -1.6289    -4.6124 C.3     
  27 C27            4.3284    -3.5650    -6.0658 C.ar    
  28 C28            4.7974    -3.8797    -7.3369 C.ar    
  29 C29            6.0819    -4.3651    -7.4972 C.ar    
  30 C30            6.9004    -4.5376    -6.3933 C.ar    
  31 C31            6.4347    -4.2247    -5.1279 C.ar    
  32 C32            5.1532    -3.7342    -4.9629 C.ar    
  33 F33            8.1552    -5.0124    -6.5518 F       
  34 F34            3.9985    -3.7117    -8.4134 F       
  35 H35            0.1516    -3.2353    -5.0691 H       
  36 H36            0.9802    -0.9936    -5.2335 H       
  37 H37            3.1708    -0.2982    -0.9999 H       
  38 H38            3.2860     1.9792    -0.1825 H       
  39 H39            1.7886     4.9821     1.9762 H       
  40 H40            3.0307     3.9622     1.2111 H       
  41 H41            1.9947    -2.4783    -0.8075 H       
  42 H42            0.2539    -2.5307    -0.4397 H       
  43 H43            0.9944     5.2752    -0.6536 H       
  44 H44            2.4117     7.3784    -0.7009 H       
  45 H45            3.4258     6.7263     0.6948 H       
  46 H46            4.0813     4.7236    -0.7173 H       
  47 H47            3.0671     5.3757    -2.1129 H       
  48 H48            1.7757    -3.8211    -2.5856 H       
  49 H49            0.0037    -3.9336    -2.8163 H       
  50 H50            1.4257    -0.0856    -3.0880 H       
  51 H51            2.7115    -1.2890    -2.7644 H       
  52 H52            2.8334    -4.3255    -4.1929 H       
  53 H53            1.8350    -4.8069    -5.5991 H       
  54 H54            3.7692    -1.7934    -4.3717 H       
  55 H55            3.2571    -0.9589    -5.8708 H       
  56 H56            6.4471    -4.6101    -8.4836 H       
  57 H57            7.0751    -4.3602    -4.2689 H       
  58 H58            4.7924    -3.4866    -3.9755 H       
@<TRIPOS>BOND
   1    1   13 1
   2    1    5 1
   3    1    8 2
   4    2    3 1
   5    2   10 1
   6    2   13 2
   7    3    4 2
   8    3   37 1
   9    4    5 1
  10    4   38 1
  11    5    6 1
  12    6    7 2
  13    6    9 1
  14    7    8 1
  15    9   11 1
  16    9   39 1
  17    9   40 1
  18   10   12 1
  19   10   41 1
  20   10   42 1
  21   11   15 1
  22   11   16 1
  23   11   43 1
  24   12   20 1
  25   12   22 1
  26   13   14 1
  27   14   17 1
  28   14   18 1
  29   14   19 1
  30   15   16 1
  31   15   44 1
  32   15   45 1
  33   16   46 1
  34   16   47 1
  35   20   21 1
  36   20   48 1
  37   20   49 1
  38   21   23 1
  39   21   26 1
  40   21   35 1
  41   22   26 1
  42   22   50 1
  43   22   51 1
  44   23   24 1
  45   23   52 1
  46   23   53 1
  47   24   25 1
  48   24   27 1
  49   25   26 1
  50   25   54 1
  51   25   55 1
  52   26   36 1
  53   27   28 ar
  54   27   32 ar
  55   28   29 ar
  56   28   34 1
  57   29   30 ar
  58   29   56 1
  59   30   31 ar
  60   30   33 1
  61   31   32 ar
  62   31   57 1
  63   32   58 1

#	End of record

