#	Name: ASD01870476
#	Creating user name:	WinNT
#	Creation time:	15. 06. 2019 19:39

#	Modifying user name:	WinNT
#	Modification time:	15. 06. 2019 19:39

#	Program:	/corina/corina34_cracker 3.40 0067  02.08.2006

@<TRIPOS>MOLECULE
ASD01870476
  39   42    0    0    0
SMALL
NO_CHARGES


@<TRIPOS>ATOM
   1 C1            -0.0302     1.3962    -0.2318 C.ar    
   2 C2            -0.0271     0.0159    -0.1043 C.ar    
   3 C3             1.1521    -0.6625     0.1406 C.ar    
   4 C4             2.3479     0.0280     0.2622 C.ar    
   5 C5             2.3601     1.4079     0.1372 C.ar    
   6 C6             1.1575     2.0997    -0.1126 C.ar    
   7 C7             3.4146     2.4414     0.2050 C.2     
   8 N8             2.8483     3.6453     0.0063 N.am    
   9 C9             1.5220     3.5303    -0.1869 C.2     
  10 O10            0.7530     4.4481    -0.3899 O.2     
  11 O11            4.5948     2.2378     0.4069 O.2     
  12 C12            3.5488     4.8615     0.0025 C.ar    
  13 C13            4.0782     5.3538    -1.1826 C.ar    
  14 C14            4.7672     6.5500    -1.1869 C.ar    
  15 C15            4.9313     7.2616    -0.0053 C.ar    
  16 C16            4.4016     6.7700     1.1805 C.ar    
  17 C17            3.7074     5.5754     1.1837 C.ar    
  18 Cl18           3.0392     4.9635     2.6645 Cl      
  19 N19            5.6308     8.4740    -0.0098 N.am    
  20 C20            6.4035     8.8101     1.0421 C.2     
  21 C21            7.2160    10.0301     0.9949 C.2     
  22 O22            6.4269     8.1012     2.0310 O.2     
  23 C23            8.0342    10.4848     1.9771 C.2     
  24 N24            8.6516    11.6024     1.6865 N.2     
  25 C25            8.4157    12.1285     0.5278 C.2     
  26 S26            7.3107    11.1641    -0.3505 S.3     
  27 C27            8.2166     9.7659     3.2890 C.3     
  28 H28           -0.9538     1.9207    -0.4275 H       
  29 H29           -0.9524    -0.5333    -0.1967 H       
  30 H30            1.1416    -1.7381     0.2382 H       
  31 H31            3.2661    -0.5073     0.4540 H       
  32 H32            3.9512     4.8006    -2.1015 H       
  33 H33            5.1792     6.9324    -2.1091 H       
  34 H34            4.5290     7.3231     2.0993 H       
  35 H35            5.5595     9.0723    -0.7700 H       
  36 H36            8.8579    13.0447     0.1652 H       
  37 H37            9.0404     9.0573     3.2035 H       
  38 H38            8.4402    10.4903     4.0722 H       
  39 H39            7.3011     9.2302     3.5401 H       
@<TRIPOS>BOND
   1    1    2 ar
   2    1    6 ar
   3    1   28 1
   4    2    3 ar
   5    2   29 1
   6    3    4 ar
   7    3   30 1
   8    4    5 ar
   9    4   31 1
  10    5    7 1
  11    5    6 ar
  12    6    9 1
  13    7    8 am
  14    7   11 2
  15    8    9 am
  16    8   12 1
  17    9   10 2
  18   12   13 ar
  19   12   17 ar
  20   13   14 ar
  21   13   32 1
  22   14   15 ar
  23   14   33 1
  24   15   16 ar
  25   15   19 1
  26   16   17 ar
  27   16   34 1
  28   17   18 1
  29   19   20 am
  30   19   35 1
  31   20   21 1
  32   20   22 2
  33   21   23 2
  34   21   26 1
  35   23   24 1
  36   23   27 1
  37   24   25 2
  38   25   26 1
  39   25   36 1
  40   27   37 1
  41   27   38 1
  42   27   39 1

#	End of record

