#	Name: ASD03092173
#	Creating user name:	WinNT
#	Creation time:	15. 06. 2019 20:32

#	Modifying user name:	WinNT
#	Modification time:	15. 06. 2019 20:32

#	Program:	/corina/corina34_cracker 3.40 0067  02.08.2006

@<TRIPOS>MOLECULE
ASD03092173
  53   56    0    0    0
SMALL
NO_CHARGES


@<TRIPOS>ATOM
   1 N1            -0.0733     1.2739    -0.2855 N.pl3   
   2 C2            -0.2603     0.0142     0.2006 C.2     
   3 C3            -1.6056    -0.1752     0.3401 C.2     
   4 C4            -2.2482     0.9994    -0.0721 C.2     
   5 N5            -1.3331     1.8660    -0.4401 N.2     
   6 N6            -3.6316     1.2147    -0.0840 N.pl3   
   7 C7            -4.1400     2.4762    -0.4089 C.ar    
   8 C8            -5.4131     2.5944    -0.9516 C.ar    
   9 C9            -5.9134     3.8414    -1.2712 C.ar    
  10 C10           -5.1466     4.9733    -1.0515 C.ar    
  11 C11           -3.3750     3.6135    -0.1840 C.ar    
  12 C12            0.7997    -0.9679     0.5184 C.ar    
  13 C13            1.2167     1.8995    -0.5868 C.3     
  14 C14            0.5466    -2.0037     1.4176 C.ar    
  15 C15            1.5369    -2.9173     1.7129 C.ar    
  16 C16            2.7868    -2.8106     1.1185 C.ar    
  17 C17            3.0445    -1.7810     0.2183 C.ar    
  18 C18            2.0533    -0.8638    -0.0848 C.ar    
  19 C19           -3.8770     4.8579    -0.5109 C.ar    
  20 C20            1.5158     1.7578    -2.0805 C.3     
  21 C21            2.8461     2.3950    -2.3892 C.2     
  22 O22            3.7516    -3.7190     1.4304 O.3     
  23 C23            4.8674    -3.8054     0.5377 C.3     
  24 C24            5.3456    -2.3808     0.2262 C.3     
  25 O25            4.2624    -1.6670    -0.3793 O.3     
  26 N26            3.3187     2.3908    -3.6513 N.am    
  27 O27            3.4914     2.9117    -1.5017 O.2     
  28 C28            4.6119     3.0103    -3.9514 C.3     
  29 C29            2.5391     1.7667    -4.7233 C.3     
  30 F30           -5.6378     6.1921    -1.3653 F       
  31 H31           -2.0880    -1.0708     0.7029 H       
  32 H32           -4.2373     0.4889     0.1331 H       
  33 H33           -6.0112     1.7118    -1.1239 H       
  34 H34           -6.9032     3.9337    -1.6933 H       
  35 H35           -2.3864     3.5244     0.2417 H       
  36 H36            1.1784     2.9563    -0.3226 H       
  37 H37            2.0016     1.4092    -0.0109 H       
  38 H38           -0.4243    -2.0901     1.8827 H       
  39 H39            1.3392    -3.7186     2.4095 H       
  40 H40            2.2528    -0.0631    -0.7816 H       
  41 H41           -3.2805     5.7421    -0.3410 H       
  42 H42            1.5488     0.7011    -2.3458 H       
  43 H43            0.7336     2.2526    -2.6563 H       
  44 H44            5.6727    -4.3685     1.0095 H       
  45 H45            4.5630    -4.3008    -0.3842 H       
  46 H46            5.6436    -1.8831     1.1490 H       
  47 H47            6.1907    -2.4188    -0.4612 H       
  48 H48            5.4033     2.2682    -3.8465 H       
  49 H49            4.6040     3.3913    -4.9726 H       
  50 H50            4.7905     3.8324    -3.2582 H       
  51 H51            1.5723     2.2632    -4.8058 H       
  52 H52            3.0776     1.8610    -5.6663 H       
  53 H53            2.3876     0.7116    -4.4953 H       
@<TRIPOS>BOND
   1    1    2 1
   2    1   13 1
   3    1    5 1
   4    2    3 2
   5    2   12 1
   6    3    4 1
   7    3   31 1
   8    4    5 2
   9    4    6 1
  10    6    7 1
  11    6   32 1
  12    7    8 ar
  13    7   11 ar
  14    8    9 ar
  15    8   33 1
  16    9   10 ar
  17    9   34 1
  18   10   19 ar
  19   10   30 1
  20   11   19 ar
  21   11   35 1
  22   12   14 ar
  23   12   18 ar
  24   13   20 1
  25   13   36 1
  26   13   37 1
  27   14   15 ar
  28   14   38 1
  29   15   16 ar
  30   15   39 1
  31   16   17 ar
  32   16   22 1
  33   17   18 ar
  34   17   25 1
  35   18   40 1
  36   19   41 1
  37   20   21 1
  38   20   42 1
  39   20   43 1
  40   21   26 am
  41   21   27 2
  42   22   23 1
  43   23   24 1
  44   23   44 1
  45   23   45 1
  46   24   25 1
  47   24   46 1
  48   24   47 1
  49   26   28 1
  50   26   29 1
  51   28   48 1
  52   28   49 1
  53   28   50 1
  54   29   51 1
  55   29   52 1
  56   29   53 1

#	End of record

