#	Name: ASD09740274
#	Creating user name:	WinNT
#	Creation time:	15. 06. 2019 21:23

#	Modifying user name:	WinNT
#	Modification time:	15. 06. 2019 21:23

#	Program:	/corina/corina34_cracker 3.40 0067  02.08.2006

@<TRIPOS>MOLECULE
ASD09740274
  42   44    0    0    0
SMALL
NO_CHARGES


@<TRIPOS>ATOM
   1 N1            -0.0144     1.2085     0.0087 N.2     
   2 O2             0.0021    -0.0041     0.0020 O.3     
   3 C3             1.2061     1.6798    -0.0004 C.2     
   4 N4             2.0457     0.6235    -0.0141 N.2     
   5 C5             1.2698    -0.4440    -0.0125 C.2     
   6 C6             1.7125    -1.8545    -0.0243 C.ar    
   7 C7             1.5955     3.1123     0.0028 C.ar    
   8 C8             0.7710    -2.8845    -0.0208 C.ar    
   9 C9             1.1908    -4.1989    -0.0318 C.ar    
  10 C10            2.5416    -4.4966    -0.0463 C.ar    
  11 C11            3.4804    -3.4799    -0.0493 C.ar    
  12 C12            3.0740    -2.1618    -0.0447 C.ar    
  13 C13            0.6160     4.1029     0.0172 C.ar    
  14 C14            0.9836     5.4333     0.0201 C.ar    
  15 C15            2.3216     5.7838     0.0083 C.ar    
  16 C16            3.2981     4.8043    -0.0065 C.ar    
  17 C17            2.9417     3.4708    -0.0028 C.ar    
  18 C18            0.1755    -5.3125    -0.0276 C.3     
  19 C19           -0.1824    -5.6818    -1.4686 C.3     
  20 C20           -1.2132    -6.8125    -1.4643 C.3     
  21 C21           -2.5168    -6.3118    -0.8391 C.3     
  22 C22           -1.4781    -7.2665    -2.9012 C.3     
  23 H23           -0.2839    -2.6534    -0.0092 H       
  24 H24            2.8650    -5.5270    -0.0548 H       
  25 H25            4.5336    -3.7190    -0.0603 H       
  26 H26            3.8077    -1.3692    -0.0470 H       
  27 H27           -0.4290     3.8303     0.0257 H       
  28 H28            0.2251     6.2021     0.0313 H       
  29 H29            2.6048     6.8260     0.0102 H       
  30 H30            4.3414     5.0834    -0.0160 H       
  31 H31            3.7050     2.7068    -0.0140 H       
  32 H32            0.5934    -6.1833     0.4776 H       
  33 H33           -0.7218    -4.9841     0.4968 H       
  34 H34           -0.6003    -4.8111    -1.9738 H       
  35 H35            0.7150    -6.0103    -1.9930 H       
  36 H36           -0.8301    -7.6512    -0.8830 H       
  37 H37           -3.2511    -7.1172    -0.8361 H       
  38 H38           -2.3280    -5.9883     0.1845 H       
  39 H39           -2.8998    -5.4730    -1.4204 H       
  40 H40           -0.5494    -7.6233    -3.3465 H       
  41 H41           -2.2124    -8.0720    -2.8981 H       
  42 H42           -1.8611    -6.4278    -3.4825 H       
@<TRIPOS>BOND
   1    1    2 1
   2    1    3 2
   3    2    5 1
   4    3    4 1
   5    3    7 1
   6    4    5 2
   7    5    6 1
   8    6    8 ar
   9    6   12 ar
  10    7   13 ar
  11    7   17 ar
  12    8    9 ar
  13    8   23 1
  14    9   10 ar
  15    9   18 1
  16   10   11 ar
  17   10   24 1
  18   11   12 ar
  19   11   25 1
  20   12   26 1
  21   13   14 ar
  22   13   27 1
  23   14   15 ar
  24   14   28 1
  25   15   16 ar
  26   15   29 1
  27   16   17 ar
  28   16   30 1
  29   17   31 1
  30   18   19 1
  31   18   32 1
  32   18   33 1
  33   19   20 1
  34   19   34 1
  35   19   35 1
  36   20   22 1
  37   20   21 1
  38   20   36 1
  39   21   37 1
  40   21   38 1
  41   21   39 1
  42   22   40 1
  43   22   41 1
  44   22   42 1

#	End of record

