#	Name: ASD03080142
#	Creating user name:	WinNT
#	Creation time:	15. 06. 2019 20:26

#	Modifying user name:	WinNT
#	Modification time:	15. 06. 2019 20:26

#	Program:	/corina/corina34_cracker 3.40 0067  02.08.2006

@<TRIPOS>MOLECULE
ASD03080142
  37   40    0    0    0
SMALL
NO_CHARGES


@<TRIPOS>ATOM
   1 C1            -0.0160     1.3255     0.0093 C.ar    
   2 N2             0.0021    -0.0041     0.0020 N.ar    
   3 C3             1.1889     2.0474     0.0017 C.ar    
   4 C4             2.3919     1.3598    -0.0139 C.ar    
   5 C5             2.3562    -0.0263    -0.0214 C.ar    
   6 C6             1.1344    -0.6765    -0.0124 C.ar    
   7 N7            -1.0159     2.2458     0.0293 N.2     
   8 O8             0.8541     3.3569     0.0124 O.3     
   9 C9             1.0991    -2.1830    -0.0201 C.3     
  10 C10           -0.4873     3.4443     0.0282 C.2     
  11 N11           -1.2000     4.6196     0.0454 N.3     
  12 C12           -2.6461     4.3584     0.0660 C.3     
  13 C13           -3.3548     5.3660     0.9587 C.3     
  14 C14           -3.4529     6.7484     0.3458 C.3     
  15 N15           -2.9310     6.7694    -1.0282 N.3     
  16 C16           -1.4627     6.8537    -1.0071 C.3     
  17 C17           -0.8437     5.4676    -1.0984 C.3     
  18 C18           -3.1688     4.3393    -1.3588 C.3     
  19 C19           -3.5011     5.7339    -1.8633 C.3     
  20 H20            3.3329     1.8898    -0.0204 H       
  21 H21            3.2747    -0.5943    -0.0334 H       
  22 H22            1.1011    -2.5517     1.0056 H       
  23 H23            0.1956    -2.5227    -0.5266 H       
  24 H24            1.9750    -2.5643    -0.5450 H       
  25 H25           -2.8032     3.3648     0.4858 H       
  26 H26           -4.3617     5.0028     1.1648 H       
  27 H27           -2.8129     5.4394     1.9016 H       
  28 H28           -4.4976     7.0593     0.3344 H       
  29 H29           -2.8811     7.4489     0.9544 H       
  30 H30           -1.1253     7.4540    -1.8520 H       
  31 H31           -1.1437     7.3290    -0.0796 H       
  32 H32            0.2410     5.5674    -1.1395 H       
  33 H33           -1.1871     4.9872    -2.0146 H       
  34 H34           -2.4120     3.8988    -2.0079 H       
  35 H35           -4.0682     3.7247    -1.3980 H       
  36 H36           -4.5843     5.8534    -1.8844 H       
  37 H37           -3.1151     5.8446    -2.8766 H       
@<TRIPOS>BOND
   1    1    2 ar
   2    1    3 ar
   3    1    7 1
   4    2    6 ar
   5    3    4 ar
   6    3    8 1
   7    4    5 ar
   8    4   20 1
   9    5    6 ar
  10    5   21 1
  11    6    9 1
  12    7   10 2
  13    8   10 1
  14    9   22 1
  15    9   23 1
  16    9   24 1
  17   10   11 1
  18   11   12 1
  19   11   17 1
  20   12   13 1
  21   12   18 1
  22   12   25 1
  23   13   14 1
  24   13   26 1
  25   13   27 1
  26   14   15 1
  27   14   28 1
  28   14   29 1
  29   15   16 1
  30   15   19 1
  31   16   17 1
  32   16   30 1
  33   16   31 1
  34   17   32 1
  35   17   33 1
  36   18   19 1
  37   18   34 1
  38   18   35 1
  39   19   36 1
  40   19   37 1

#	End of record

