#	Name: ASD01900383
#	Creating user name:	WinNT
#	Creation time:	15. 06. 2019 19:51

#	Modifying user name:	WinNT
#	Modification time:	15. 06. 2019 19:51

#	Program:	/corina/corina34_cracker 3.40 0067  02.08.2006

@<TRIPOS>MOLECULE
ASD01900383
  26   28    0    0    0
SMALL
NO_CHARGES


@<TRIPOS>ATOM
   1 C1            -0.0032     1.4000     0.0771 C.ar    
   2 C2             0.0100     0.0138    -0.0067 C.ar    
   3 N3             1.1379    -0.6592    -0.0273 N.ar    
   4 C4             2.3158    -0.0423     0.0307 C.ar    
   5 C5             2.3781     1.3617     0.1165 C.ar    
   6 C6             1.1903     2.0918     0.1399 C.ar    
   7 C7             3.7037    -0.5108     0.0265 C.2     
   8 N8             4.4783     0.5387     0.1033 N.2     
   9 N9             3.7042     1.7023     0.1600 N.pl3   
  10 N10            4.1242    -1.8423    -0.0465 N.pl3   
  11 C11            5.4851    -2.1401    -0.1667 C.ar    
  12 C12            6.4039    -1.1217    -0.3794 C.ar    
  13 C13            5.9220    -3.4575    -0.0677 C.ar    
  14 C14            7.2682    -3.7481    -0.1872 C.ar    
  15 C15            8.1801    -2.7309    -0.4043 C.ar    
  16 C16            7.7491    -1.4195    -0.4979 C.ar    
  17 Cl17           8.8979    -0.1470    -0.7711 Cl      
  18 F18            5.0319    -4.4512     0.1453 F       
  19 H19           -0.9417     1.9343     0.0886 H       
  20 H20           -0.9265    -0.5220    -0.0555 H       
  21 H21            1.2035     3.1698     0.2052 H       
  22 H22            4.0511     2.6061     0.2200 H       
  23 H23            3.4718    -2.5594    -0.0137 H       
  24 H24            6.0685    -0.0977    -0.4526 H       
  25 H25            7.6083    -4.7702    -0.1105 H       
  26 H26            9.2313    -2.9604    -0.4969 H       
@<TRIPOS>BOND
   1    1    2 ar
   2    1    6 ar
   3    1   19 1
   4    2    3 ar
   5    2   20 1
   6    3    4 ar
   7    4    5 ar
   8    4    7 1
   9    5    6 ar
  10    5    9 1
  11    6   21 1
  12    7    8 2
  13    7   10 1
  14    8    9 1
  15    9   22 1
  16   10   11 1
  17   10   23 1
  18   11   12 ar
  19   11   13 ar
  20   12   16 ar
  21   12   24 1
  22   13   14 ar
  23   13   18 1
  24   14   15 ar
  25   14   25 1
  26   15   16 ar
  27   15   26 1
  28   16   17 1

#	End of record

