#	Name: ASD04890001
#	Creating user name:	WinNT
#	Creation time:	15. 06. 2019 20:55

#	Modifying user name:	WinNT
#	Modification time:	15. 06. 2019 20:55

#	Program:	/corina/corina34_cracker 3.40 0067  02.08.2006

@<TRIPOS>MOLECULE
ASD04890001
  59   62    0    0    0
SMALL
NO_CHARGES


@<TRIPOS>ATOM
   1 C1             0.5160     1.5204    -2.0944 C.ar    
   2 C2             0.5641     0.1336    -2.2302 C.ar    
   3 C3             1.6286    -0.5612    -1.6992 C.ar    
   4 C4             2.6489     0.1052    -1.0326 C.ar    
   5 C5             2.6225     1.4641    -0.8876 C.ar    
   6 C6             1.5566     2.1949    -1.4158 C.ar    
   7 C7             1.4805     3.6504    -1.2887 C.2     
   8 N8             0.4713     4.2952    -1.7938 N.2     
   9 N9            -0.5696     3.6565    -2.4683 N.am    
  10 C10           -0.5874     2.3186    -2.6427 C.2     
  11 O11           -1.5042     1.7826    -3.2394 O.2     
  12 C12            2.5722     4.4022    -0.5717 C.3     
  13 C13            2.2566     5.8757    -0.5804 C.2     
  14 N14            3.0987     6.7487     0.0071 N.am    
  15 O15            1.2448     6.2761    -1.1162 O.2     
  16 C16            2.8498     8.1253    -0.0742 C.ar    
  17 C17            1.5556     8.5880    -0.2625 C.ar    
  18 C18            1.3125     9.9461    -0.3419 C.ar    
  19 C19            2.3565    10.8464    -0.2341 C.ar    
  20 C20            3.6488    10.3927    -0.0467 C.ar    
  21 C21            3.9003     9.0329     0.0397 C.ar    
  22 O22            5.1701     8.5853     0.2295 O.3     
  23 C23            6.1969     9.5733     0.3374 C.3     
  24 S24           -0.3319    10.5320    -0.5818 S.o2    
  25 N25           -0.9986    10.7491     0.9184 N.am    
  26 C26           -0.8738    12.0681     1.6252 C.3     
  27 C27           -2.1981    12.6883     1.6378 C.3     
  28 C28           -3.2763    11.8505     2.3174 C.3     
  29 C29           -3.8558    10.9895     1.2327 C.3     
  30 C30           -1.7098     9.6821     1.5612 C.3     
  31 C31           -3.2188     9.5783     1.2507 C.3     
  32 O32           -0.2169    11.8246    -1.1607 O.2     
  33 O33           -1.0517     9.4689    -1.1908 O.2     
  34 H34           -0.2260    -0.3911    -2.7467 H       
  35 H35            1.6701    -1.6355    -1.8020 H       
  36 H36            3.4742    -0.4582    -0.6230 H       
  37 H37            3.4221     1.9699    -0.3668 H       
  38 H38           -1.2981     4.1888    -2.8246 H       
  39 H39            2.6392     4.0510     0.4580 H       
  40 H40            3.5230     4.2312    -1.0765 H       
  41 H41            3.8772     6.4241     0.4862 H       
  42 H42            0.7384     7.8871    -0.3475 H       
  43 H43            2.1618    11.9069    -0.2967 H       
  44 H44            4.4620    11.0985     0.0368 H       
  45 H45            6.2288    10.1655    -0.5771 H       
  46 H46            5.9863    10.2251     1.1853 H       
  47 H47            7.1589     9.0828     0.4863 H       
  48 H48           -0.5298    11.9092     2.6473 H       
  49 H49           -0.1704    12.7083     1.0926 H       
  50 H50           -2.1271    13.6459     2.1536 H       
  51 H51           -2.5026    12.8753     0.6080 H       
  52 H52           -2.8357    11.2292     3.0972 H       
  53 H53           -4.0467    12.4966     2.7383 H       
  54 H54           -4.9317    10.8993     1.3827 H       
  55 H55           -3.6673    11.4558     0.2656 H       
  56 H56           -1.2430     8.7404     1.2725 H       
  57 H57           -1.5928     9.7967     2.6388 H       
  58 H58           -3.7055     8.9719     2.0146 H       
  59 H59           -3.3556     9.1076     0.2772 H       
@<TRIPOS>BOND
   1    1    2 ar
   2    1    6 ar
   3    1   10 1
   4    2    3 ar
   5    2   34 1
   6    3    4 ar
   7    3   35 1
   8    4    5 ar
   9    4   36 1
  10    5    6 ar
  11    5   37 1
  12    6    7 1
  13    7    8 2
  14    7   12 1
  15    8    9 1
  16    9   10 am
  17    9   38 1
  18   10   11 2
  19   12   13 1
  20   12   39 1
  21   12   40 1
  22   13   14 am
  23   13   15 2
  24   14   16 1
  25   14   41 1
  26   16   17 ar
  27   16   21 ar
  28   17   18 ar
  29   17   42 1
  30   18   19 ar
  31   18   24 1
  32   19   20 ar
  33   19   43 1
  34   20   21 ar
  35   20   44 1
  36   21   22 1
  37   22   23 1
  38   23   45 1
  39   23   46 1
  40   23   47 1
  41   24   25 am
  42   24   32 2
  43   24   33 2
  44   25   26 1
  45   25   30 1
  46   26   27 1
  47   26   48 1
  48   26   49 1
  49   27   28 1
  50   27   50 1
  51   27   51 1
  52   28   29 1
  53   28   52 1
  54   28   53 1
  55   29   31 1
  56   29   54 1
  57   29   55 1
  58   30   31 1
  59   30   56 1
  60   30   57 1
  61   31   58 1
  62   31   59 1

#	End of record

