#	Name: ASD01150465
#	Creating user name:	WinNT
#	Creation time:	15. 06. 2019 19:04

#	Modifying user name:	WinNT
#	Modification time:	15. 06. 2019 19:04

#	Program:	/corina/corina34_cracker 3.40 0067  02.08.2006

@<TRIPOS>MOLECULE
ASD01150465
  57   60    0    0    0
SMALL
NO_CHARGES


@<TRIPOS>ATOM
   1 C1             1.6437     1.2493     0.9543 C.ar    
   2 C2             1.6083    -0.1315     0.9554 C.ar    
   3 C3             0.1805    -0.1004    -0.9743 C.ar    
   4 C4             0.2135     1.2867    -0.9781 C.ar    
   5 C5             0.9461     1.9630    -0.0129 C.ar    
   6 N6             0.9820     3.3617    -0.0131 N.am    
   7 C7            -0.1657     4.0541    -0.1193 C.2     
   8 N8            -0.1680     5.4002    -0.1224 N.am    
   9 C9             0.9938     6.0782    -0.0180 C.2     
  10 C10            2.2527     5.3267     0.0983 C.2     
  11 N11            2.2119     4.0204     0.1029 N.2     
  12 O12            1.0000     7.2951    -0.0205 O.2     
  13 C13           -1.4331     6.1296    -0.2398 C.3     
  14 O14           -1.2193     3.4542    -0.2144 O.2     
  15 C15           -1.9963     6.3828     1.1348 C.ar    
  16 C16           -1.6668     7.5338     1.8248 C.ar    
  17 N17           -2.1558     7.7623     3.0282 N.ar    
  18 C18           -2.9720     6.9112     3.6180 C.ar    
  19 C19           -3.3465     5.7388     2.9887 C.ar    
  20 C20           -2.8565     5.4664     1.7209 C.ar    
  21 O21            3.4389     5.9802     0.2045 O.3     
  22 C22            4.6151     5.1760     0.3135 C.3     
  23 C23            0.8796    -0.8077    -0.0045 C.ar    
  24 N24           -0.5567    -0.7861    -1.9461 N.am    
  25 C25           -0.1066    -1.9613    -2.4286 C.2     
  26 C26           -0.8401    -2.6443    -3.5540 C.3     
  27 O27            0.8888    -2.4692    -1.9571 O.2     
  28 C28           -3.5024     7.2199     4.9944 C.3     
  29 C29           -4.9633     6.7518     5.1136 C.3     
  30 C30           -4.9991     5.7029     6.2443 C.3     
  31 C31           -3.7612     6.0381     7.1127 C.3     
  32 C32           -2.7014     6.4392     6.0568 C.3     
  33 H33            2.2105     1.7750     1.7085 H       
  34 H34            2.1515    -0.6838     1.7079 H       
  35 H35           -0.3295     1.8389    -1.7308 H       
  36 H36           -1.2585     7.0812    -0.7419 H       
  37 H37           -2.1414     5.5376    -0.8193 H       
  38 H38           -1.0008     8.2544     1.3736 H       
  39 H39           -4.0151     5.0455     3.4772 H       
  40 H40           -3.1319     4.5585     1.2050 H       
  41 H41            4.5455     4.5491     1.2025 H       
  42 H42            4.7067     4.5446    -0.5702 H       
  43 H43            5.4903     5.8211     0.3915 H       
  44 H44            0.8540    -1.8874    -0.0008 H       
  45 H45           -1.3916    -0.4157    -2.2724 H       
  46 H46           -1.7020    -2.0432    -3.8435 H       
  47 H47           -0.1720    -2.7565    -4.4079 H       
  48 H48           -1.1768    -3.6272    -3.2245 H       
  49 H49           -3.4364     8.2905     5.1882 H       
  50 H50           -5.6062     7.5950     5.3661 H       
  51 H51           -5.2887     6.3013     4.1759 H       
  52 H52           -5.9136     5.8031     6.8288 H       
  53 H53           -4.9159     4.6965     5.8338 H       
  54 H54           -3.9735     6.8713     7.7827 H       
  55 H55           -3.4348     5.1628     7.6744 H       
  56 H56           -2.2471     5.5518     5.6161 H       
  57 H57           -1.9390     7.0768     6.5045 H       
@<TRIPOS>BOND
   1    1    2 ar
   2    1    5 ar
   3    1   33 1
   4    2   23 ar
   5    2   34 1
   6    3    4 ar
   7    3   24 1
   8    3   23 ar
   9    4    5 ar
  10    4   35 1
  11    5    6 1
  12    6    7 am
  13    6   11 1
  14    7    8 am
  15    7   14 2
  16    8    9 am
  17    8   13 1
  18    9   10 1
  19    9   12 2
  20   10   11 2
  21   10   21 1
  22   13   15 1
  23   13   36 1
  24   13   37 1
  25   15   16 ar
  26   15   20 ar
  27   16   17 ar
  28   16   38 1
  29   17   18 ar
  30   18   19 ar
  31   18   28 1
  32   19   20 ar
  33   19   39 1
  34   20   40 1
  35   21   22 1
  36   22   41 1
  37   22   42 1
  38   22   43 1
  39   23   44 1
  40   24   25 am
  41   24   45 1
  42   25   26 1
  43   25   27 2
  44   26   46 1
  45   26   47 1
  46   26   48 1
  47   28   29 1
  48   28   32 1
  49   28   49 1
  50   29   30 1
  51   29   50 1
  52   29   51 1
  53   30   31 1
  54   30   52 1
  55   30   53 1
  56   31   32 1
  57   31   54 1
  58   31   55 1
  59   32   56 1
  60   32   57 1

#	End of record

