#	Name: ASD07310005
#	Creating user name:	WinNT
#	Creation time:	15. 06. 2019 21:11

#	Modifying user name:	WinNT
#	Modification time:	15. 06. 2019 21:11

#	Program:	/corina/corina34_cracker 3.40 0067  02.08.2006

@<TRIPOS>MOLECULE
ASD07310005
  24   25    0    0    0
SMALL
NO_CHARGES


@<TRIPOS>ATOM
   1 C1            -0.0165     1.3642     0.0095 C.ar    
   2 C2             0.0021    -0.0041     0.0020 C.ar    
   3 C3             1.2167    -0.6799    -0.0132 C.ar    
   4 N4             2.3614    -0.0350    -0.0202 N.ar    
   5 C5             2.4071     1.2938    -0.0135 C.ar    
   6 C6             1.2120     2.0459     0.0015 C.ar    
   7 C7             3.6873     2.0120    -0.0209 C.ar    
   8 C8             3.6683     3.4241    -0.0128 C.ar    
   9 C9             2.4375     4.1182     0.0027 C.ar    
  10 C10            1.2611     3.4582     0.0086 C.ar    
  11 N11            4.8451     1.3586    -0.0344 N.ar    
  12 C12            5.9921     1.9994    -0.0407 C.ar    
  13 C13            6.0483     3.3883    -0.0334 C.ar    
  14 C14            4.8904     4.1173    -0.0198 C.ar    
  15 H15           -0.9508     1.9058     0.0170 H       
  16 H16           -0.9252    -0.5578     0.0082 H       
  17 H17            1.2195    -1.7599    -0.0190 H       
  18 H18            2.4387     5.1982     0.0091 H       
  19 H19            0.3388     4.0200     0.0200 H       
  20 H20            6.9123     1.4342    -0.0514 H       
  21 H21            7.0041     3.8911    -0.0388 H       
  22 H22            4.9152     5.1970    -0.0144 H       
  23 Zn23          12.0041    10.1982     5.0200 Du      
  24 Zn24          12.0041    12.3382     5.0200 Du      
@<TRIPOS>BOND
   1    1    2 ar
   2    1    6 ar
   3    1   15 1
   4    2    3 ar
   5    2   16 1
   6    3    4 ar
   7    3   17 1
   8    4    5 ar
   9    5    6 ar
  10    5    7 ar
  11    6   10 ar
  12    7    8 ar
  13    7   11 ar
  14    8    9 ar
  15    8   14 ar
  16    9   10 ar
  17    9   18 1
  18   10   19 1
  19   11   12 ar
  20   12   13 ar
  21   12   20 1
  22   13   14 ar
  23   13   21 1
  24   14   22 1
  25   23   24 1

#	End of record

