#	Name: ASD01917205
#	Creating user name:	WinNT
#	Creation time:	15. 06. 2019 20:08

#	Modifying user name:	WinNT
#	Modification time:	15. 06. 2019 20:08

#	Program:	/corina/corina34_cracker 3.40 0067  02.08.2006

@<TRIPOS>MOLECULE
ASD01917205
  65   67    0    0    0
SMALL
NO_CHARGES


@<TRIPOS>ATOM
   1 N1            -0.0169     1.3961     0.0097 N.2     
   2 N2             0.0021    -0.0041     0.0020 N.pl3   
   3 C3             1.3093    -0.4042    -0.0126 C.2     
   4 C4             2.0839     0.7387    -0.0139 C.2     
   5 C5             1.2196     1.8356     0.0003 C.2     
   6 C6             1.7982    -1.7906    -0.0240 C.2     
   7 O7             2.9931    -2.0136    -0.0367 O.2     
   8 O8             0.9214    -2.8147    -0.0204 O.3     
   9 O9             1.5968     3.1422     0.0033 O.3     
  10 C10            1.4752    -4.1568    -0.0322 C.3     
  11 C11            0.3535    -5.1632    -0.0261 C.ar    
  12 C12           -1.1697    -0.8833     0.0085 C.3     
  13 C13           -1.9989    -0.6187     1.2668 C.3     
  14 C14            0.5534     4.1186     0.0186 C.3     
  15 C15            1.1574     5.4993     0.0197 C.ar    
  16 C16            1.4227     6.1386    -1.1768 C.ar    
  17 C17            1.9768     7.4051    -1.1758 C.ar    
  18 C18            2.2652     8.0323     0.0219 C.ar    
  19 C19            1.9991     7.3933     1.2184 C.ar    
  20 C20            1.4410     6.1286     1.2174 C.ar    
  21 C21           -2.0221    -0.6062    -1.2315 C.3     
  22 C22           -0.1726    -5.6191    -1.2203 C.ar    
  23 C23           -1.2015    -6.5422    -1.2147 C.ar    
  24 C24           -1.7040    -7.0098    -0.0149 C.ar    
  25 C25           -1.1773    -6.5546     1.1794 C.ar    
  26 C26           -0.1454    -5.6348     1.1738 C.ar    
  27 N27           -3.1041    -1.5780     1.3340 N.am    
  28 O28           -4.9879    -2.4165     2.4259 O.3     
  29 C29           -5.8838    -2.3113     3.5637 C.3     
  30 C30           -6.5385    -0.9285     3.5712 C.3     
  31 C31           -6.9663    -3.3877     3.4616 C.3     
  32 C32           -5.0904    -2.5070     4.8572 C.3     
  33 C33           -3.9721    -1.5349     2.3641 C.2     
  34 O34           -3.8379    -0.7005     3.2372 O.2     
  35 H35            3.1632     0.7774    -0.0237 H       
  36 H36            2.0801    -4.2924    -0.9287 H       
  37 H37            2.0974    -4.3009     0.8511 H       
  38 H38           -0.8437    -1.9233     0.0002 H       
  39 H39           -1.3673    -0.7299     2.1482 H       
  40 H40           -2.3989     0.3946     1.2320 H       
  41 H41           -0.0717     3.9962    -0.8659 H       
  42 H42           -0.0542     3.9871     0.9139 H       
  43 H43            1.1973     5.6486    -2.1125 H       
  44 H44            2.1847     7.9043    -2.1106 H       
  45 H45            2.6987     9.0215     0.0227 H       
  46 H46            2.2248     7.8832     2.1541 H       
  47 H47            1.2331     5.6294     2.1522 H       
  48 H48           -2.3482     0.4339    -1.2233 H       
  49 H49           -1.4314    -0.7946    -2.1280 H       
  50 H50           -2.8940    -1.2603    -1.2267 H       
  51 H51            0.2201    -5.2537    -2.1578 H       
  52 H52           -1.6130    -6.8978    -2.1478 H       
  53 H53           -2.5084    -7.7305    -0.0105 H       
  54 H54           -1.5702    -6.9197     2.1168 H       
  55 H55            0.2661    -5.2791     2.1068 H       
  56 H56           -3.2113    -2.2441     0.6370 H       
  57 H57           -7.1037    -0.7891     2.6497 H       
  58 H58           -7.2110    -0.8496     4.4254 H       
  59 H59           -5.7673    -0.1617     3.6439 H       
  60 H60           -6.4999    -4.3728     3.4563 H       
  61 H61           -7.6389    -3.3087     4.3158 H       
  62 H62           -7.5315    -3.2483     2.5401 H       
  63 H63           -4.3192    -1.7402     4.9300 H       
  64 H64           -5.7629    -2.4281     5.7114 H       
  65 H65           -4.6240    -3.4921     4.8519 H       
@<TRIPOS>BOND
   1    1    2 1
   2    1    5 2
   3    2    3 1
   4    2   12 1
   5    3    4 2
   6    3    6 1
   7    4    5 1
   8    4   35 1
   9    5    9 1
  10    6    7 2
  11    6    8 1
  12    8   10 1
  13    9   14 1
  14   10   11 1
  15   10   36 1
  16   10   37 1
  17   11   22 ar
  18   11   26 ar
  19   12   13 1
  20   12   21 1
  21   12   38 1
  22   13   27 1
  23   13   39 1
  24   13   40 1
  25   14   15 1
  26   14   41 1
  27   14   42 1
  28   15   16 ar
  29   15   20 ar
  30   16   17 ar
  31   16   43 1
  32   17   18 ar
  33   17   44 1
  34   18   19 ar
  35   18   45 1
  36   19   20 ar
  37   19   46 1
  38   20   47 1
  39   21   48 1
  40   21   49 1
  41   21   50 1
  42   22   23 ar
  43   22   51 1
  44   23   24 ar
  45   23   52 1
  46   24   25 ar
  47   24   53 1
  48   25   26 ar
  49   25   54 1
  50   26   55 1
  51   27   33 am
  52   27   56 1
  53   28   29 1
  54   28   33 1
  55   29   30 1
  56   29   31 1
  57   29   32 1
  58   30   57 1
  59   30   58 1
  60   30   59 1
  61   31   60 1
  62   31   61 1
  63   31   62 1
  64   32   63 1
  65   32   64 1
  66   32   65 1
  67   33   34 2

#	End of record

