#	Name: ASD03240665
#	Creating user name:	WinNT
#	Creation time:	15. 06. 2019 20:35

#	Modifying user name:	WinNT
#	Modification time:	15. 06. 2019 20:35

#	Program:	/corina/corina34_cracker 3.40 0067  02.08.2006

@<TRIPOS>MOLECULE
ASD03240665
  67   73    0    0    0
SMALL
NO_CHARGES


@<TRIPOS>ATOM
   1 C1             0.8148     0.6075     0.6801 C.ar    
   2 C2             1.0532    -0.7468     0.7914 C.ar    
   3 N3             2.2839    -1.2228     0.7871 N.ar    
   4 C4             3.3415    -0.4302     0.6776 C.ar    
   5 C5             3.1739     0.9472     0.5476 C.ar    
   6 C6             1.8904     1.4772     0.5550 C.ar    
   7 N7             4.6154    -0.9904     0.7152 N.pl3   
   8 C8             5.5036    -0.6688     1.7382 C.ar    
   9 C9             5.9484     0.6474     1.9056 C.ar    
  10 C10            5.5000     1.7058     0.9759 C.2     
  11 N11            4.2714     1.8055     0.3919 N.pl3   
  12 C12            5.9516    -1.6585     2.6026 C.ar    
  13 C13            6.8228    -1.3401     3.6270 C.ar    
  14 C14            7.2540    -0.0364     3.8011 C.ar    
  15 C15            6.8225     0.9583     2.9469 C.ar    
  16 N16            6.2381     2.7216     0.5714 N.2     
  17 C17            5.5331     3.4839    -0.2657 C.2     
  18 C18            4.2938     2.9361    -0.4017 C.2     
  19 C19            3.1879     3.4508    -1.2359 C.ar    
  20 C20            2.8770     4.8118    -1.2261 C.ar    
  21 C21            2.4531     2.5792    -2.0418 C.ar    
  22 C22            1.4223     3.0664    -2.8184 C.ar    
  23 C23            1.1164     4.4157    -2.8003 C.ar    
  24 C24            1.8438     5.2858    -2.0076 C.ar    
  25 C25            6.0239     4.7366    -0.9447 C.3     
  26 C26            6.6501     4.3784    -2.2678 C.2     
  27 N27            7.1618     5.3454    -3.0549 N.am    
  28 C28            7.8296     5.0054    -4.2365 C.ar    
  29 C29            7.3991     3.9227    -4.9923 C.ar    
  30 C30           -0.0106     4.9407    -3.6518 C.3     
  31 N31           -0.9598     3.8931    -4.0511 N.3     
  32 C32           -0.6857     6.1960    -3.0744 C.3     
  33 C33           -0.7475     6.7296    -4.5154 C.3     
  34 C34            0.4595     5.8237    -4.8198 C.3     
  35 O35            6.6936     3.2200    -2.6243 O.2     
  36 C36            8.0604     3.5896    -6.1581 C.ar    
  37 C37            9.1505     4.3325    -6.5728 C.ar    
  38 C38            9.5817     5.4111    -5.8226 C.ar    
  39 C39            8.9208     5.7532    -4.6590 C.ar    
  40 H40           -0.1965     0.9866     0.6857 H       
  41 H41            0.2200    -1.4276     0.8838 H       
  42 H42            1.7321     2.5418     0.4658 H       
  43 H43            4.8871    -1.6116     0.0216 H       
  44 H44            5.6188    -2.6779     2.4745 H       
  45 H45            7.1691    -2.1136     4.2965 H       
  46 H46            7.9306     0.2034     4.6081 H       
  47 H47            7.1607     1.9747     3.0847 H       
  48 H48            3.4440     5.4920    -0.6079 H       
  49 H49            2.6913     1.5259    -2.0573 H       
  50 H50            0.8531     2.3932    -3.4422 H       
  51 H51            1.5996     6.3378    -1.9979 H       
  52 H52            5.1849     5.4123    -1.1109 H       
  53 H53            6.7648     5.2260    -0.3126 H       
  54 H54            7.0671     6.2772    -2.8023 H       
  55 H55            6.5482     3.3417    -4.6685 H       
  56 H56           -0.4776     3.0998    -4.4464 H       
  57 H57           -1.5383     3.6136    -3.2730 H       
  58 H58           -1.6657     6.0031    -2.6379 H       
  59 H59           -0.0371     6.7789    -2.4204 H       
  60 H60           -1.6533     6.4419    -5.0491 H       
  61 H61           -0.5272     7.7940    -4.5966 H       
  62 H62            1.4217     6.3043    -4.6432 H       
  63 H63            0.4026     5.3323    -5.7911 H       
  64 H64            7.7261     2.7478    -6.7462 H       
  65 H65            9.6664     4.0696    -7.4845 H       
  66 H66           10.4334     5.9894    -6.1491 H       
  67 H67            9.2579     6.5959    -4.0737 H       
@<TRIPOS>BOND
   1    1    2 ar
   2    1    6 ar
   3    1   40 1
   4    2    3 ar
   5    2   41 1
   6    3    4 ar
   7    4    5 ar
   8    4    7 1
   9    5    6 ar
  10    5   11 1
  11    6   42 1
  12    7    8 1
  13    7   43 1
  14    8    9 ar
  15    8   12 ar
  16    9   10 1
  17    9   15 ar
  18   10   11 1
  19   10   16 2
  20   11   18 1
  21   12   13 ar
  22   12   44 1
  23   13   14 ar
  24   13   45 1
  25   14   15 ar
  26   14   46 1
  27   15   47 1
  28   16   17 1
  29   17   18 2
  30   17   25 1
  31   18   19 1
  32   19   20 ar
  33   19   21 ar
  34   20   24 ar
  35   20   48 1
  36   21   22 ar
  37   21   49 1
  38   22   23 ar
  39   22   50 1
  40   23   24 ar
  41   23   30 1
  42   24   51 1
  43   25   26 1
  44   25   52 1
  45   25   53 1
  46   26   27 am
  47   26   35 2
  48   27   28 1
  49   27   54 1
  50   28   29 ar
  51   28   39 ar
  52   29   36 ar
  53   29   55 1
  54   30   31 1
  55   30   32 1
  56   30   34 1
  57   31   56 1
  58   31   57 1
  59   32   33 1
  60   32   58 1
  61   32   59 1
  62   33   34 1
  63   33   60 1
  64   33   61 1
  65   34   62 1
  66   34   63 1
  67   36   37 ar
  68   36   64 1
  69   37   38 ar
  70   37   65 1
  71   38   39 ar
  72   38   66 1
  73   39   67 1

#	End of record

