#	Name: ASD01410955
#	Creating user name:	WinNT
#	Creation time:	15. 06. 2019 19:19

#	Modifying user name:	WinNT
#	Modification time:	15. 06. 2019 19:19

#	Program:	/corina/corina34_cracker 3.40 0067  02.08.2006

@<TRIPOS>MOLECULE
ASD01410955
  71   74    0    0    0
SMALL
NO_CHARGES


@<TRIPOS>ATOM
   1 C1             0.5678     1.8124    -0.2327 C.ar    
   2 C2             0.7288     0.4437    -0.0691 C.ar    
   3 C3            -0.3736    -0.3831     0.0300 C.ar    
   4 C4            -1.6526     0.1489    -0.0339 C.ar    
   5 C5            -1.8253     1.5326    -0.1993 C.ar    
   6 C6            -0.7031     2.3628    -0.2930 C.ar    
   7 O7             1.6603     2.6170    -0.3286 O.3     
   8 C8             2.0580     3.2861     0.7824 C.ar    
   9 N9            -2.7636    -0.6875     0.0654 N.am    
  10 C10           -3.3990    -0.8268     1.2458 C.2     
  11 C11           -4.5288    -1.8148     1.3815 C.3     
  12 O12           -3.0615    -0.1569     2.1989 O.2     
  13 C13           -4.9051    -1.9597     2.8574 C.3     
  14 C14           -5.7409    -1.3150     0.5928 C.3     
  15 C15           -6.8879    -2.3181     0.7306 C.3     
  16 C16           -7.2642    -2.4630     2.2065 C.3     
  17 C17           -6.0521    -2.9628     2.9951 C.3     
  18 O18           -8.3355    -3.3999     2.3351 O.3     
  19 N19            1.4523     3.0584     1.9364 N.ar    
  20 C20           -3.2405    -1.4150    -1.1134 C.3     
  21 C21           -3.6119    -0.4176    -2.2126 C.3     
  22 O22           -1.8356    -3.3181    -0.6182 O.3     
  23 C23           -2.1360    -2.3447    -1.6203 C.3     
  24 C24           -0.7395    -4.1733    -0.9486 C.3     
  25 C25            3.1010     4.1996     0.6988 C.ar    
  26 C26            3.4971     4.8757     1.8398 C.ar    
  27 C27            2.8325     4.6126     3.0295 C.ar    
  28 C28            1.8075     3.6872     3.0405 C.ar    
  29 C29            3.2294     5.3244     4.2971 C.3     
  30 N30            2.4548     6.5612     4.4258 N.pl3   
  31 N31            1.3179     6.6527     5.0199 N.2     
  32 C32            0.9050     7.8980     4.9506 C.2     
  33 C33            1.8956     8.5912     4.2511 C.2     
  34 N34            2.8216     7.7043     3.9647 N.2     
  35 F35           -0.8576     3.6955    -0.4518 F       
  36 C36            3.7924     4.4509    -0.6164 C.3     
  37 F37            4.7995     5.4056    -0.4389 F       
  38 F38            4.3570     3.2585    -1.0817 F       
  39 F39            2.8626     4.9219    -1.5496 F       
  40 C40           -3.1794     2.1069    -0.2689 C.2     
  41 O41           -3.7777     2.3778     0.7536 O.2     
  42 O42           -3.7551     2.3322    -1.4664 O.3     
  43 H43            1.7219     0.0223    -0.0192 H       
  44 H44           -0.2388    -1.4471     0.1572 H       
  45 H45           -4.2144    -2.7823     0.9900 H       
  46 H46           -4.0416    -2.3158     3.4192 H       
  47 H47           -5.2195    -0.9923     3.2489 H       
  48 H48           -6.0553    -0.3475     0.9843 H       
  49 H49           -5.4728    -1.2117    -0.4586 H       
  50 H50           -7.7514    -1.9620     0.1687 H       
  51 H51           -6.5735    -3.2856     0.3391 H       
  52 H52           -7.5786    -1.4956     2.5980 H       
  53 H53           -5.7377    -3.9303     2.6036 H       
  54 H54           -6.3202    -3.0661     4.0466 H       
  55 H55           -8.6267    -3.5418     3.2463 H       
  56 H56           -4.1175    -2.0046    -0.8463 H       
  57 H57           -2.7158     0.1056    -2.5463 H       
  58 H58           -4.0550    -0.9516    -3.0532 H       
  59 H59           -4.3294     0.3036    -1.8214 H       
  60 H60           -2.4724    -2.8481    -2.5266 H       
  61 H61           -1.2419    -1.7609    -1.8394 H       
  62 H62           -0.5187    -4.8243    -0.1027 H       
  63 H63           -1.0006    -4.7801    -1.8156 H       
  64 H64            0.1370    -3.5678    -1.1796 H       
  65 H65            4.3052     5.5915     1.8052 H       
  66 H66            1.2872     3.4788     3.9636 H       
  67 H67            3.0300     4.6801     5.1533 H       
  68 H68            4.2923     5.5634     4.2620 H       
  69 H69           -0.0124     8.3027     5.3518 H       
  70 H70            1.9013     9.6419     4.0010 H       
  71 H71           -4.6714     2.6413    -1.4618 H       
@<TRIPOS>BOND
   1    1    2 ar
   2    1    7 1
   3    1    6 ar
   4    2    3 ar
   5    2   43 1
   6    3    4 ar
   7    3   44 1
   8    4    5 ar
   9    4    9 1
  10    5    6 ar
  11    5   40 1
  12    6   35 1
  13    7    8 1
  14    8   25 ar
  15    8   19 ar
  16    9   10 am
  17    9   20 1
  18   10   11 1
  19   10   12 2
  20   11   13 1
  21   11   14 1
  22   11   45 1
  23   13   17 1
  24   13   46 1
  25   13   47 1
  26   14   15 1
  27   14   48 1
  28   14   49 1
  29   15   16 1
  30   15   50 1
  31   15   51 1
  32   16   17 1
  33   16   18 1
  34   16   52 1
  35   17   53 1
  36   17   54 1
  37   18   55 1
  38   19   28 ar
  39   20   21 1
  40   20   23 1
  41   20   56 1
  42   21   57 1
  43   21   58 1
  44   21   59 1
  45   22   23 1
  46   22   24 1
  47   23   60 1
  48   23   61 1
  49   24   62 1
  50   24   63 1
  51   24   64 1
  52   25   26 ar
  53   25   36 1
  54   26   27 ar
  55   26   65 1
  56   27   28 ar
  57   27   29 1
  58   28   66 1
  59   29   30 1
  60   29   67 1
  61   29   68 1
  62   30   31 1
  63   30   34 1
  64   31   32 2
  65   32   33 1
  66   32   69 1
  67   33   34 2
  68   33   70 1
  69   36   37 1
  70   36   38 1
  71   36   39 1
  72   40   41 2
  73   40   42 1
  74   42   71 1

#	End of record

