#	Name: ASD03430077
#	Creating user name:	WinNT
#	Creation time:	15. 06. 2019 20:40

#	Modifying user name:	WinNT
#	Modification time:	15. 06. 2019 20:40

#	Program:	/corina/corina34_cracker 3.40 0067  02.08.2006

@<TRIPOS>MOLECULE
ASD03430077
  54   59    0    0    0
SMALL
NO_CHARGES


@<TRIPOS>ATOM
   1 C1            -0.0167     1.3826     0.0096 C.ar    
   2 C2             0.0021    -0.0041     0.0020 C.ar    
   3 C3             1.2025    -0.6815    -0.0157 C.ar    
   4 C4             2.4086     0.0136    -0.0156 C.ar    
   5 C5             2.3861     1.4041    -0.0118 C.ar    
   6 C6             1.1811     2.0871     0.0020 C.ar    
   7 O7             3.4712    -0.8413    -0.0057 O.3     
   8 C8             1.5510    -2.1454    -0.0502 C.3     
   9 C9             3.0365    -2.1452    -0.4366 C.3     
  10 C10            0.4282    -3.8603     1.0070 C.ar    
  11 C11            1.3153    -2.8200     1.2684 C.ar    
  12 C12            0.7173    -2.9061    -1.0410 C.2     
  13 N13            0.0986    -3.8845    -0.3504 N.am    
  14 O14            0.6196    -2.6836    -2.2292 O.2     
  15 C15            1.7821    -2.6005     2.5499 C.ar    
  16 C16            1.3664    -3.4225     3.5896 C.ar    
  17 C17            0.4865    -4.4573     3.3366 C.ar    
  18 C18            0.0189    -4.6786     2.0572 C.ar    
  19 O19            2.6477    -1.5815     2.7932 O.3     
  20 C20           -0.8129    -4.8601    -0.9532 C.3     
  21 C21            4.0364    -0.2436     4.2181 C.ar    
  22 C22            3.0891    -1.4132     4.1418 C.3     
  23 N23            3.5627     0.9643     4.4526 N.ar    
  24 C24            4.3537     2.0169     4.5278 C.ar    
  25 C25            5.7194     1.8881     4.3613 C.ar    
  26 C26            6.2545     0.6331     4.1131 C.ar    
  27 C27            5.3923    -0.4504     4.0470 C.ar    
  28 C28            5.9254    -1.8345     3.7802 C.3     
  29 F29            7.3156    -1.7786     3.6333 F       
  30 F30            5.6031    -2.6732     4.8525 F       
  31 F31            5.3524    -2.3367     2.6068 F       
  32 O32           -1.2112     2.0360     0.0189 O.3     
  33 C33           -1.1869     3.4167     0.3973 C.3     
  34 C34           -0.0355     4.0995    -0.3533 C.3     
  35 O35            1.1861     3.4487     0.0114 O.3     
  36 H36           -0.9268    -0.5550     0.0104 H       
  37 H37            3.3147     1.9554    -0.0192 H       
  38 H38            3.1560    -2.2565    -1.5144 H       
  39 H39            3.5752    -2.9286     0.0965 H       
  40 H40            1.7301    -3.2535     4.5923 H       
  41 H41            0.1631    -5.0968     4.1446 H       
  42 H42           -0.6684    -5.4902     1.8693 H       
  43 H43           -1.8316    -4.4736    -0.9214 H       
  44 H44           -0.5233    -5.0361    -1.9892 H       
  45 H45           -0.7621    -5.7965    -0.3976 H       
  46 H46            2.2291    -1.2268     4.7850 H       
  47 H47            3.6007    -2.3173     4.4721 H       
  48 H48            3.9291     2.9909     4.7214 H       
  49 H49            6.3619     2.7540     4.4233 H       
  50 H50            7.3181     0.5024     3.9784 H       
  51 H51           -2.1321     3.8884     0.1283 H       
  52 H52           -1.0262     3.5007     1.4721 H       
  53 H53           -0.1926     4.0092    -1.4282 H       
  54 H54            0.0114     5.1524    -0.0753 H       
@<TRIPOS>BOND
   1    1    2 ar
   2    1    6 ar
   3    1   32 1
   4    2    3 ar
   5    2   36 1
   6    3    4 ar
   7    3    8 1
   8    4    5 ar
   9    4    7 1
  10    5    6 ar
  11    5   37 1
  12    6   35 1
  13    7    9 1
  14    8    9 1
  15    8   11 1
  16    8   12 1
  17    9   38 1
  18    9   39 1
  19   10   11 ar
  20   10   13 1
  21   10   18 ar
  22   11   15 ar
  23   12   13 am
  24   12   14 2
  25   13   20 1
  26   15   16 ar
  27   15   19 1
  28   16   17 ar
  29   16   40 1
  30   17   18 ar
  31   17   41 1
  32   18   42 1
  33   19   22 1
  34   20   43 1
  35   20   44 1
  36   20   45 1
  37   21   22 1
  38   21   23 ar
  39   21   27 ar
  40   22   46 1
  41   22   47 1
  42   23   24 ar
  43   24   25 ar
  44   24   48 1
  45   25   26 ar
  46   25   49 1
  47   26   27 ar
  48   26   50 1
  49   27   28 1
  50   28   29 1
  51   28   30 1
  52   28   31 1
  53   32   33 1
  54   33   34 1
  55   33   51 1
  56   33   52 1
  57   34   35 1
  58   34   53 1
  59   34   54 1

#	End of record

