#	Name: ASD02401006
#	Creating user name:	WinNT
#	Creation time:	15. 06. 2019 20:20

#	Modifying user name:	WinNT
#	Modification time:	15. 06. 2019 20:20

#	Program:	/corina/corina34_cracker 3.40 0067  02.08.2006

@<TRIPOS>MOLECULE
ASD02401006
  75   76    0    0    0
SMALL
NO_CHARGES


@<TRIPOS>ATOM
   1 C1            -0.0167     1.3831     0.0096 C.ar    
   2 C2             0.0021    -0.0041     0.0020 C.ar    
   3 C3            -1.1912    -0.7117     0.0096 C.ar    
   4 C4            -2.3948    -0.0338     0.0246 C.ar    
   5 C5            -2.4108     1.3487     0.0318 C.ar    
   6 C6            -1.2229     2.0562     0.0305 C.ar    
   7 C7            -3.7253     2.0857     0.0472 C.3     
   8 C8            -4.1507     2.3241     1.4731 C.ar    
   9 C9            -3.7597     3.4784     2.1262 C.ar    
  10 C10           -4.1484     3.6994     3.4333 C.ar    
  11 C11           -4.9318     2.7619     4.0906 C.ar    
  12 C12           -5.3228     1.6046     3.4332 C.ar    
  13 C13           -4.9362     1.3909     2.1242 C.ar    
  14 O14            1.1874    -0.6686    -0.0133 O.3     
  15 O15           -5.3151     2.9768     5.3766 O.3     
  16 C16            1.2776     2.1549     0.0014 C.3     
  17 C17            0.9769     3.6550     0.0124 C.3     
  18 C18            2.0969     1.7900     1.2410 C.3     
  19 C19            2.0730     1.8034    -1.2574 C.3     
  20 C20           -6.1738     0.5841     4.1443 C.3     
  21 C21           -6.4606    -0.5866     3.2019 C.3     
  22 C22           -5.4314     0.0735     5.3808 C.3     
  23 C23           -7.4934     1.2296     4.5721 C.3     
  24 C24           -1.1744    -2.2186     0.0008 C.3     
  25 C25           -2.6111    -2.7447     0.0118 C.3     
  26 C26           -0.4597    -2.7133    -1.2583 C.3     
  27 C27           -0.4354    -2.7276     1.2401 C.3     
  28 C28           -3.7214     4.9574     4.1446 C.3     
  29 C29           -2.8718     5.8127     3.2025 C.3     
  30 C30           -4.9602     5.7469     4.5725 C.3     
  31 C31           -2.8986     4.5899     5.3811 C.3     
  32 H32           -3.3240    -0.5842     0.0305 H       
  33 H33           -1.2381     3.1361     0.0361 H       
  34 H34           -3.6115     3.0422    -0.4628 H       
  35 H35           -4.4820     1.4896    -0.4629 H       
  36 H36           -3.1495     4.2077     1.6141 H       
  37 H37           -5.2406     0.4903     1.6118 H       
  38 H38            1.5392    -0.8657     0.8656 H       
  39 H39           -6.1551     3.4479     5.4632 H       
  40 H40            0.4102     3.9055     0.9092 H       
  41 H41            1.9131     4.2133     0.0064 H       
  42 H42            0.3932     3.9151    -0.8707 H       
  43 H43            2.3111     0.7212     1.2332 H       
  44 H44            3.0331     2.3482     1.2350 H       
  45 H45            1.5302     2.0404     2.1378 H       
  46 H46            1.4893     2.0634    -2.1404 H       
  47 H47            3.0092     2.3616    -1.2633 H       
  48 H48            2.2872     0.7347    -1.2651 H       
  49 H49           -5.5205    -1.0464     2.8971 H       
  50 H50           -7.0761    -1.3246     3.7162 H       
  51 H51           -6.9895    -0.2227     2.3210 H       
  52 H52           -5.2270     0.9075     6.0521 H       
  53 H53           -6.0469    -0.6646     5.8951 H       
  54 H54           -4.4913    -0.3864     5.0760 H       
  55 H55           -8.0223     1.5934     3.6912 H       
  56 H56           -8.1089     0.4915     5.0864 H       
  57 H57           -7.2890     2.0636     5.2435 H       
  58 H58           -3.1375    -2.3820    -0.8711 H       
  59 H59           -2.5989    -3.8346     0.0054 H       
  60 H60           -3.1203    -2.3922     0.9087 H       
  61 H61            0.5638    -2.3385    -1.2661 H       
  62 H62           -0.4476    -3.8033    -1.2646 H       
  63 H63           -0.9861    -2.3507    -2.1411 H       
  64 H64           -0.9446    -2.3751     2.1370 H       
  65 H65           -0.4233    -3.8175     1.2337 H       
  66 H66            0.5881    -2.3528     1.2323 H       
  67 H67           -3.4580     6.0745     2.3216 H       
  68 H68           -2.5630     6.7227     3.7170 H       
  69 H69           -1.9893     5.2503     2.8976 H       
  70 H70           -5.5654     5.1375     5.2437 H       
  71 H71           -4.6513     6.6568     5.0870 H       
  72 H72           -5.5463     6.0087     3.6916 H       
  73 H73           -2.0161     4.0275     5.0763 H       
  74 H74           -2.5898     5.4999     5.8956 H       
  75 H75           -3.5038     3.9806     6.0523 H       
@<TRIPOS>BOND
   1    1    2 ar
   2    1   16 1
   3    1    6 ar
   4    2    3 ar
   5    2   14 1
   6    3    4 ar
   7    3   24 1
   8    4    5 ar
   9    4   32 1
  10    5    6 ar
  11    5    7 1
  12    6   33 1
  13    7    8 1
  14    7   34 1
  15    7   35 1
  16    8    9 ar
  17    8   13 ar
  18    9   10 ar
  19    9   36 1
  20   10   11 ar
  21   10   28 1
  22   11   12 ar
  23   11   15 1
  24   12   13 ar
  25   12   20 1
  26   13   37 1
  27   14   38 1
  28   15   39 1
  29   16   17 1
  30   16   18 1
  31   16   19 1
  32   17   40 1
  33   17   41 1
  34   17   42 1
  35   18   43 1
  36   18   44 1
  37   18   45 1
  38   19   46 1
  39   19   47 1
  40   19   48 1
  41   20   21 1
  42   20   22 1
  43   20   23 1
  44   21   49 1
  45   21   50 1
  46   21   51 1
  47   22   52 1
  48   22   53 1
  49   22   54 1
  50   23   55 1
  51   23   56 1
  52   23   57 1
  53   24   25 1
  54   24   26 1
  55   24   27 1
  56   25   58 1
  57   25   59 1
  58   25   60 1
  59   26   61 1
  60   26   62 1
  61   26   63 1
  62   27   64 1
  63   27   65 1
  64   27   66 1
  65   28   29 1
  66   28   30 1
  67   28   31 1
  68   29   67 1
  69   29   68 1
  70   29   69 1
  71   30   70 1
  72   30   71 1
  73   30   72 1
  74   31   73 1
  75   31   74 1
  76   31   75 1

#	End of record

