#	Name: ASD01948250
#	Creating user name:	WinNT
#	Creation time:	15. 06. 2019 20:14

#	Modifying user name:	WinNT
#	Modification time:	15. 06. 2019 20:14

#	Program:	/corina/corina34_cracker 3.40 0067  02.08.2006

@<TRIPOS>MOLECULE
ASD01948250
  42   44    0    0    0
SMALL
NO_CHARGES


@<TRIPOS>ATOM
   1 C1            -0.7098     3.1299     1.0481 C.ar    
   2 C2            -1.4702     4.0785     0.3864 C.ar    
   3 C3            -0.8617     5.1814    -0.1849 C.ar    
   4 C4             0.5081     5.3403    -0.0972 C.ar    
   5 C5             1.2750     4.3916     0.5654 C.ar    
   6 C6             0.6610     3.2827     1.1395 C.ar    
   7 C7             2.9851     3.0944    -1.2506 C.ar    
   8 C8             3.5090     3.7847    -0.1597 C.ar    
   9 N9             2.6615     4.5497     0.6553 N.pl3   
  10 C10            3.8097     2.3384    -2.0586 C.ar    
  11 C11            5.1784     2.2642    -1.7819 C.ar    
  12 C12            5.7066     2.9587    -0.6841 C.ar    
  13 C13            4.8683     3.7179     0.1247 C.ar    
  14 N14            5.3925     4.4143     1.2248 N.am    
  15 Br15          -3.3451     3.8658     0.2628 Br      
  16 F16            3.2955     1.6710    -3.1147 F       
  17 F17            1.4033     2.3572     1.7857 F       
  18 F18            1.6620     3.1610    -1.5155 F       
  19 O19            7.0337     2.6979    -0.6746 O.3     
  20 C20            7.3077     1.8874    -1.7096 C.2     
  21 N21            6.2233     1.6221    -2.3730 N.2     
  22 S22            7.0315     4.5732     1.3997 S.o2    
  23 N23            7.5918     5.3739     0.0627 N.am    
  24 O24            7.2347     5.4445     2.5036 O.2     
  25 O25            7.5710     3.2601     1.3364 O.2     
  26 C26            7.1852     6.7593    -0.1853 C.3     
  27 C27            8.4941     4.6967    -0.8720 C.3     
  28 C28            8.6777     1.3616    -2.0526 C.3     
  29 H29           -1.1883     2.2721     1.4971 H       
  30 H30           -1.4581     5.9194    -0.7008 H       
  31 H31            0.9819     6.2018    -0.5441 H       
  32 H32            3.0373     5.1884     1.2812 H       
  33 H33            4.7946     4.8025     1.8827 H       
  34 H34            7.8932     7.4367     0.2921 H       
  35 H35            7.1702     6.9469    -1.2589 H       
  36 H36            6.1896     6.9250     0.2264 H       
  37 H37            7.9086     4.1298    -1.5958 H       
  38 H38            9.0989     5.4379    -1.3945 H       
  39 H39            9.1459     4.0188    -0.3211 H       
  40 H40            8.8434     0.4155    -1.5373 H       
  41 H41            8.7482     1.2062    -3.1292 H       
  42 H42            9.4326     2.0829    -1.7395 H       
@<TRIPOS>BOND
   1    1    2 ar
   2    1    6 ar
   3    1   29 1
   4    2    3 ar
   5    2   15 1
   6    3    4 ar
   7    3   30 1
   8    4    5 ar
   9    4   31 1
  10    5    6 ar
  11    5    9 1
  12    6   17 1
  13    7    8 ar
  14    7   10 ar
  15    7   18 1
  16    8    9 1
  17    8   13 ar
  18    9   32 1
  19   10   11 ar
  20   10   16 1
  21   11   12 ar
  22   11   21 1
  23   12   13 ar
  24   12   19 1
  25   13   14 1
  26   14   22 am
  27   14   33 1
  28   19   20 1
  29   20   21 2
  30   20   28 1
  31   22   23 am
  32   22   24 2
  33   22   25 2
  34   23   26 1
  35   23   27 1
  36   26   34 1
  37   26   35 1
  38   26   36 1
  39   27   37 1
  40   27   38 1
  41   27   39 1
  42   28   40 1
  43   28   41 1
  44   28   42 1

#	End of record

