#	Name: ASD01001165
#	Creating user name:	WinNT
#	Creation time:	15. 06. 2019 18:55

#	Modifying user name:	WinNT
#	Modification time:	15. 06. 2019 18:55

#	Program:	/corina/corina34_cracker 3.40 0067  02.08.2006

@<TRIPOS>MOLECULE
ASD01001165
  42   45    0    0    0
SMALL
NO_CHARGES


@<TRIPOS>ATOM
   1 C1            -0.0184     1.5049     0.0103 C.3     
   2 C2             0.0021    -0.0041     0.0020 C.ar    
   3 C3             1.4096     2.0448    -0.0004 C.3     
   4 C4             1.1211    -0.7140     0.4208 C.ar    
   5 C5            -1.1116    -0.6748    -0.4280 C.ar    
   6 C6             2.2044     1.3867     1.1308 C.3     
   7 C7             1.1105    -2.1086     0.4094 C.ar    
   8 N8             2.2705    -0.0544     0.8506 N.pl3   
   9 C9             3.5964     1.9622     1.1790 C.ar    
  10 C10           -0.0061    -2.7873    -0.0203 C.ar    
  11 C11           -1.1305    -2.0718    -0.4444 C.ar    
  12 C12            3.9096     2.9369     2.1078 C.ar    
  13 C13            4.5616     1.5112     0.2981 C.ar    
  14 C14            5.1865     3.4647     2.1520 C.ar    
  15 C15            5.8384     2.0390     0.3423 C.ar    
  16 C16            6.1502     3.0175     1.2676 C.ar    
  17 O17           -0.6980     1.9449     1.1888 O.3     
  18 C18            1.4111     3.5619     0.1664 C.3     
  19 C19           -0.7803     3.3631     1.3327 C.3     
  20 C20            0.6354     3.9397     1.4318 C.3     
  21 C21           -2.3318    -2.7893    -0.9073 C.2     
  22 O22           -3.3077    -2.1658    -1.2754 O.2     
  23 O23           -2.3479    -4.1367    -0.9224 O.3     
  24 H24           -0.5496     1.8657    -0.8704 H       
  25 H25            1.8771     1.8030    -0.9549 H       
  26 H26           -1.9793    -0.1215    -0.7555 H       
  27 H27            1.7010     1.5553     2.0828 H       
  28 H28            1.9809    -2.6569     0.7383 H       
  29 H29            3.1029    -0.5396     0.9630 H       
  30 H30           -0.0145    -3.8672    -0.0301 H       
  31 H31            3.1567     3.2863     2.7988 H       
  32 H32            4.3182     0.7463    -0.4244 H       
  33 H33            5.4310     4.2268     2.8772 H       
  34 H34            6.5926     1.6865    -0.3457 H       
  35 H35            7.1478     3.4299     1.3021 H       
  36 H36            2.4382     3.9168     0.2507 H       
  37 H37            0.9380     4.0229    -0.7006 H       
  38 H38           -1.2873     3.7885     0.4666 H       
  39 H39           -1.3369     3.6059     2.2379 H       
  40 H40            1.1382     3.5259     2.3059 H       
  41 H41            0.5828     5.0251     1.5177 H       
  42 H42           -3.1581    -4.5626    -1.2342 H       
@<TRIPOS>BOND
   1    1    2 1
   2    1    3 1
   3    1   17 1
   4    1   24 1
   5    2    4 ar
   6    2    5 ar
   7    3    6 1
   8    3   18 1
   9    3   25 1
  10    4    7 ar
  11    4    8 1
  12    5   11 ar
  13    5   26 1
  14    6    8 1
  15    6    9 1
  16    6   27 1
  17    7   10 ar
  18    7   28 1
  19    8   29 1
  20    9   12 ar
  21    9   13 ar
  22   10   11 ar
  23   10   30 1
  24   11   21 1
  25   12   14 ar
  26   12   31 1
  27   13   15 ar
  28   13   32 1
  29   14   16 ar
  30   14   33 1
  31   15   16 ar
  32   15   34 1
  33   16   35 1
  34   17   19 1
  35   18   20 1
  36   18   36 1
  37   18   37 1
  38   19   20 1
  39   19   38 1
  40   19   39 1
  41   20   40 1
  42   20   41 1
  43   21   22 2
  44   21   23 1
  45   23   42 1

#	End of record

