#	Name: ASD01915400
#	Creating user name:	WinNT
#	Creation time:	15. 06. 2019 20:05

#	Modifying user name:	WinNT
#	Modification time:	15. 06. 2019 20:05

#	Program:	/corina/corina34_cracker 3.40 0067  02.08.2006

@<TRIPOS>MOLECULE
ASD01915400
  44   47    0    0    0
SMALL
NO_CHARGES


@<TRIPOS>ATOM
   1 C1             0.1863     1.2622     0.4995 C.ar    
   2 C2             0.3569    -0.1049     0.7052 C.ar    
   3 N3             1.5641    -0.6514     0.6380 N.ar    
   4 C4             2.6351     0.0699     0.3773 C.ar    
   5 C5             2.5385     1.4328     0.1631 C.ar    
   6 C6             1.2946     2.0445     0.2237 C.ar    
   7 C7             3.7723     2.2457    -0.1333 C.3     
   8 N8             4.8206     1.3783    -0.6904 N.am    
   9 C9             5.9828     1.3992     0.2164 C.3     
  10 C10            5.8624     2.7391     0.9845 C.3     
  11 C11            4.3266     2.8535     1.1724 C.3     
  12 C12            4.7333     0.6792    -1.8394 C.2     
  13 O13            3.7019     0.6947    -2.4837 O.2     
  14 C14            5.8866    -0.1033    -2.3146 C.2     
  15 C15           -0.8207    -0.9568     1.0022 C.ar    
  16 C16           -0.6593    -2.3250     1.2093 C.ar    
  17 C17           -1.7595    -3.1134     1.4860 C.ar    
  18 C18           -3.0199    -2.5456     1.5576 C.ar    
  19 C19           -3.1848    -1.1877     1.3522 C.ar    
  20 C20           -2.0917    -0.3902     1.0808 C.ar    
  21 Cl21          -1.5612    -4.8186     1.7439 Cl      
  22 C22            1.1534     3.5274    -0.0046 C.3     
  23 N23            5.9680    -0.7118    -3.4668 N.2     
  24 C24            7.0829    -1.3543    -3.6958 C.2     
  25 C25            7.9981    -1.3036    -2.7151 C.2     
  26 S26            7.3834    -0.3641    -1.4243 S.3     
  27 H27           -0.7975     1.7049     0.5501 H       
  28 H28            3.6018    -0.4094     0.3304 H       
  29 H29            3.5323     3.0387    -0.8415 H       
  30 H30            5.9383     0.5592     0.9096 H       
  31 H31            6.9105     1.3717    -0.3552 H       
  32 H32            6.3709     2.6846     1.9471 H       
  33 H33            6.2458     3.5671     0.3882 H       
  34 H34            4.0266     3.8969     1.2698 H       
  35 H35            3.9996     2.2749     2.0364 H       
  36 H36            0.3239    -2.7685     1.1532 H       
  37 H37           -3.8776    -3.1651     1.7741 H       
  38 H38           -4.1705    -0.7499     1.4085 H       
  39 H39           -2.2221     0.6699     0.9207 H       
  40 H40            0.9881     3.7176    -1.0651 H       
  41 H41            0.3063     3.9042     0.5685 H       
  42 H42            2.0638     4.0329     0.3176 H       
  43 H43            7.2568    -1.8924    -4.6160 H       
  44 H44            8.9687    -1.7766    -2.7390 H       
@<TRIPOS>BOND
   1    1    2 ar
   2    1    6 ar
   3    1   27 1
   4    2    3 ar
   5    2   15 1
   6    3    4 ar
   7    4    5 ar
   8    4   28 1
   9    5    6 ar
  10    5    7 1
  11    6   22 1
  12    7    8 1
  13    7   11 1
  14    7   29 1
  15    8    9 1
  16    8   12 am
  17    9   10 1
  18    9   30 1
  19    9   31 1
  20   10   11 1
  21   10   32 1
  22   10   33 1
  23   11   34 1
  24   11   35 1
  25   12   13 2
  26   12   14 1
  27   14   23 2
  28   14   26 1
  29   15   16 ar
  30   15   20 ar
  31   16   17 ar
  32   16   36 1
  33   17   18 ar
  34   17   21 1
  35   18   19 ar
  36   18   37 1
  37   19   20 ar
  38   19   38 1
  39   20   39 1
  40   22   40 1
  41   22   41 1
  42   22   42 1
  43   23   24 1
  44   24   25 2
  45   24   43 1
  46   25   26 1
  47   25   44 1

#	End of record

