#	Name: ASD02038985
#	Creating user name:	WinNT
#	Creation time:	15. 06. 2019 20:17

#	Modifying user name:	WinNT
#	Modification time:	15. 06. 2019 20:17

#	Program:	/corina/corina34_cracker 3.40 0067  02.08.2006

@<TRIPOS>MOLECULE
ASD02038985
  44   47    0    0    0
SMALL
NO_CHARGES


@<TRIPOS>ATOM
   1 N1             0.0026     1.2785    -0.2070 N.2     
   2 N2             0.0318    -0.0041    -0.3030 N.2     
   3 C3             1.2281     1.7343    -0.1151 C.2     
   4 O4             2.0535     0.6719    -0.1572 O.3     
   5 C5             1.2659    -0.4146    -0.2765 C.2     
   6 N6             1.6033     3.0608     0.0032 N.pl3   
   7 C7             0.6407     4.0702    -0.0872 C.ar    
   8 C8             1.7303    -1.8456    -0.3635 C.3     
   9 O9             1.9398    -2.1960    -1.7330 O.3     
  10 C10            2.3635    -3.4626    -1.9882 C.ar    
  11 C11            2.5865    -3.8688    -3.2961 C.ar    
  12 C12            2.5780    -4.3461    -0.9408 C.ar    
  13 C13            3.0084    -5.6328    -1.1989 C.ar    
  14 C14            3.2262    -6.0417    -2.5074 C.ar    
  15 C15            3.0164    -5.1546    -3.5553 C.ar    
  16 N16            3.6622    -7.3455    -2.7733 N.am    
  17 C17            4.2246    -7.6480    -3.9577 C.2     
  18 C18            4.4139    -6.5912    -5.0123 C.3     
  19 C19            3.2529    -5.6016    -4.9746 C.3     
  20 O20            4.5836    -8.7855    -4.1777 O.2     
  21 C21            0.8207     5.2669     0.5949 C.ar    
  22 C22           -0.4954     3.8811    -0.8638 C.ar    
  23 C23           -1.4446     4.8804    -0.9509 C.ar    
  24 C24           -1.2650     6.0683    -0.2660 C.ar    
  25 C25           -0.1324     6.2621     0.5035 C.ar    
  26 C26           -2.3026     7.1568    -0.3638 C.3     
  27 F27           -3.2530     6.9875     0.6488 F       
  28 F28           -1.6852     8.4039    -0.2201 F       
  29 F29           -2.9330     7.0894    -1.6110 F       
  30 H30            2.5345     3.2902     0.1488 H       
  31 H31            2.6640    -1.9587     0.1874 H       
  32 H32            0.9727    -2.5003     0.0672 H       
  33 H33            2.4234    -3.1793    -4.1112 H       
  34 H34            2.4086    -4.0276     0.0772 H       
  35 H35            3.1759    -6.3204    -0.3831 H       
  36 H36            3.5584    -8.0351    -2.0991 H       
  37 H37            5.3461    -6.0577    -4.8270 H       
  38 H38            4.4573    -7.0631    -5.9939 H       
  39 H39            2.3526    -6.0833    -5.3562 H       
  40 H40            3.4923    -4.7372    -5.5939 H       
  41 H41            1.7049     5.4186     1.1963 H       
  42 H42           -0.6361     2.9537    -1.3992 H       
  43 H43           -2.3279     4.7342    -1.5548 H       
  44 H44            0.0046     7.1908     1.0373 H       
@<TRIPOS>BOND
   1    1    2 1
   2    1    3 2
   3    2    5 2
   4    3    4 1
   5    3    6 1
   6    4    5 1
   7    5    8 1
   8    6    7 1
   9    6   30 1
  10    7   21 ar
  11    7   22 ar
  12    8    9 1
  13    8   31 1
  14    8   32 1
  15    9   10 1
  16   10   11 ar
  17   10   12 ar
  18   11   15 ar
  19   11   33 1
  20   12   13 ar
  21   12   34 1
  22   13   14 ar
  23   13   35 1
  24   14   15 ar
  25   14   16 1
  26   15   19 1
  27   16   17 am
  28   16   36 1
  29   17   18 1
  30   17   20 2
  31   18   19 1
  32   18   37 1
  33   18   38 1
  34   19   39 1
  35   19   40 1
  36   21   25 ar
  37   21   41 1
  38   22   23 ar
  39   22   42 1
  40   23   24 ar
  41   23   43 1
  42   24   25 ar
  43   24   26 1
  44   25   44 1
  45   26   27 1
  46   26   28 1
  47   26   29 1

#	End of record

