#	Name: ASD02500823
#	Creating user name:	WinNT
#	Creation time:	15. 06. 2019 20:23

#	Modifying user name:	WinNT
#	Modification time:	15. 06. 2019 20:23

#	Program:	/corina/corina34_cracker 3.40 0067  02.08.2006

@<TRIPOS>MOLECULE
ASD02500823
  41   44    0    0    0
SMALL
NO_CHARGES


@<TRIPOS>ATOM
   1 C1            -0.0169     1.3937     0.0097 C.2     
   2 C2             0.0021    -0.0041     0.0020 C.2     
   3 C3            -1.2291    -0.6945     0.0104 C.2     
   4 N4            -2.3793     0.0085     0.0255 N.am    
   5 N5            -2.3709     1.4062     0.0325 N.2     
   6 C6            -1.2541     2.0776     0.0200 C.2     
   7 C7             1.3806     1.8290    -0.0013 C.2     
   8 C8             2.1611     0.6948    -0.0148 C.2     
   9 N9             1.3130    -0.4134    -0.0126 N.pl3   
  10 S10            2.4076     3.2577    -0.0040 S.3     
  11 C11            3.8557     2.2645    -0.0232 C.2     
  12 C12            3.5328     0.9774    -0.0270 C.2     
  13 O13           -1.2520    -1.9150     0.0037 O.2     
  14 C14           -3.6592    -0.7043     0.0342 C.3     
  15 C15           -4.0841    -0.9564     1.4579 C.ar    
  16 C16           -4.6816     0.0543     2.1915 C.ar    
  17 C17           -5.0715    -0.1788     3.4997 C.ar    
  18 C18           -4.8639    -1.4195     4.0713 C.ar    
  19 C19           -4.2671    -2.4282     3.3376 C.ar    
  20 C20           -3.8827    -2.1984     2.0299 C.ar    
  21 F21           -4.8836     1.2672     1.6318 F       
  22 C22            5.2650     2.7981    -0.0347 C.3     
  23 O23            5.3120     4.0030    -0.8017 O.3     
  24 C24            5.7120     3.0887     1.3994 C.3     
  25 C25            1.7563    -1.8096    -0.0242 C.3     
  26 H26           -1.2737     3.1574     0.0262 H       
  27 H27            4.2799     0.1976    -0.0381 H       
  28 H28           -4.4146    -0.1008    -0.4690 H       
  29 H29           -3.5487    -1.6558    -0.4859 H       
  30 H30           -5.5373     0.6090     4.0731 H       
  31 H31           -5.1676    -1.6014     5.0916 H       
  32 H32           -4.1049    -3.3976     3.7853 H       
  33 H33           -3.4167    -2.9870     1.4578 H       
  34 H34            5.9302     2.0580    -0.4797 H       
  35 H35            4.7429     4.7074    -0.4626 H       
  36 H36            5.6762     2.1697     1.9844 H       
  37 H37            6.7314     3.4747     1.3911 H       
  38 H38            5.0469     3.8288     1.8444 H       
  39 H39            1.8764    -2.1612     1.0005 H       
  40 H40            1.0130    -2.4226    -0.5339 H       
  41 H41            2.7094    -1.8839    -0.5479 H       
@<TRIPOS>BOND
   1    1    2 2
   2    1    7 1
   3    1    6 1
   4    2    3 1
   5    2    9 1
   6    3    4 am
   7    3   13 2
   8    4    5 1
   9    4   14 1
  10    5    6 2
  11    6   26 1
  12    7   10 1
  13    7    8 2
  14    8    9 1
  15    8   12 1
  16    9   25 1
  17   10   11 1
  18   11   12 2
  19   11   22 1
  20   12   27 1
  21   14   15 1
  22   14   28 1
  23   14   29 1
  24   15   16 ar
  25   15   20 ar
  26   16   17 ar
  27   16   21 1
  28   17   18 ar
  29   17   30 1
  30   18   19 ar
  31   18   31 1
  32   19   20 ar
  33   19   32 1
  34   20   33 1
  35   22   23 1
  36   22   24 1
  37   22   34 1
  38   23   35 1
  39   24   36 1
  40   24   37 1
  41   24   38 1
  42   25   39 1
  43   25   40 1
  44   25   41 1

#	End of record

