#	Name: ASD01680102
#	Creating user name:	WinNT
#	Creation time:	15. 06. 2019 19:22

#	Modifying user name:	WinNT
#	Modification time:	15. 06. 2019 19:22

#	Program:	/corina/corina34_cracker 3.40 0067  02.08.2006

@<TRIPOS>MOLECULE
ASD01680102
  81   84    0    0    0
SMALL
NO_CHARGES


@<TRIPOS>ATOM
   1 C1            -3.6041     2.1764     3.8139 C.2     
   2 C2            -2.6554     1.1503     3.2500 C.3     
   3 C3            -3.3776     0.3158     2.1904 C.3     
   4 O4            -3.3490     3.3534     3.7160 O.2     
   5 O5            -4.7354     1.7831     4.4200 O.3     
   6 N6            -1.5091     1.8284     2.6397 N.am    
   7 S7            -0.1201     2.0547     3.5125 S.o2    
   8 O8             0.7999     2.6998     2.6425 O.2     
   9 O9            -0.5168     2.5970     4.7646 O.2     
  10 C10            0.5492     0.4602     3.8505 C.ar    
  11 C11            0.2869    -0.1575     5.0591 C.ar    
  12 C12            0.8120    -1.4084     5.3243 C.ar    
  13 C13            1.5990    -2.0419     4.3808 C.ar    
  14 C14            1.8605    -1.4246     3.1718 C.ar    
  15 C15            1.3318    -0.1755     2.9049 C.ar    
  16 C16            1.6127     0.4952     1.5849 C.3     
  17 C17            2.1722    -3.4052     4.6703 C.3     
  18 C18           -0.5710     0.5332     6.0877 C.3     
  19 N19           -2.4255    -0.6008     1.5582 N.am    
  20 C20           -2.8401    -1.4395     0.5881 C.2     
  21 O21           -4.0015    -1.4355     0.2385 O.2     
  22 C22           -1.8607    -2.3822    -0.0623 C.3     
  23 O23           -2.5353    -3.1617    -1.0519 O.3     
  24 N24           -2.9269    -6.1322    -1.4881 N.am    
  25 C25           -1.6962    -5.4690    -1.0204 C.3     
  26 C26           -1.6919    -4.0932    -1.7324 C.3     
  27 C27           -2.2760    -4.4600    -3.1222 C.3     
  28 C28           -3.3102    -5.5545    -2.7847 C.3     
  29 C29           -3.2909    -6.6391    -3.8636 C.3     
  30 N30           -4.4954    -7.4649    -3.7475 N.pl3   
  31 C31           -4.6218    -8.6207    -4.5093 C.ar    
  32 C32           -3.6006    -8.9876    -5.3802 C.ar    
  33 C33           -3.7395   -10.1400    -6.1321 C.ar    
  34 C34           -4.8995   -10.8900    -5.9874 C.ar    
  35 C35           -5.8724   -10.4670    -5.1045 C.ar    
  36 N36           -5.7105    -9.3656    -4.3957 N.ar    
  37 C37           -3.5881    -7.1101    -0.8377 C.2     
  38 C38           -3.1393    -7.5400     0.5038 C.ar    
  39 C39           -4.0496    -8.1008     1.4010 C.ar    
  40 C40           -3.6243    -8.5003     2.6511 C.ar    
  41 C41           -2.2988    -8.3457     3.0164 C.ar    
  42 C42           -1.3913    -7.7905     2.1317 C.ar    
  43 C43           -1.8024    -7.3921     0.8765 C.ar    
  44 O44           -4.5532    -7.6387    -1.3541 O.2     
  45 H45           -2.3074     0.4982     4.0511 H       
  46 H46           -4.1758    -0.2578     2.6616 H       
  47 H47           -3.8023     0.9766     1.4348 H       
  48 H48           -5.3125     2.4776     4.7658 H       
  49 H49           -1.5637     2.1448     1.7244 H       
  50 H50            0.6077    -1.8906     6.2688 H       
  51 H51            2.4756    -1.9194     2.4348 H       
  52 H52            2.4629     1.1686     1.6932 H       
  53 H53            1.8418    -0.2614     0.8344 H       
  54 H54            0.7366     1.0634     1.2724 H       
  55 H55            1.4732    -4.1718     4.3358 H       
  56 H56            3.1186    -3.5210     4.1421 H       
  57 H57            2.3394    -3.5088     5.7424 H       
  58 H58           -1.6135     0.5031     5.7707 H       
  59 H59           -0.4681     0.0255     7.0467 H       
  60 H60           -0.2520     1.5704     6.1896 H       
  61 H61           -1.4967    -0.6040     1.8378 H       
  62 H62           -1.0625    -1.8087    -0.5335 H       
  63 H63           -1.4360    -3.0431     0.6934 H       
  64 H64           -1.7243    -5.3363     0.0612 H       
  65 H65           -0.8195    -6.0486    -1.3097 H       
  66 H66           -0.6779    -3.7041    -1.8244 H       
  67 H67           -2.7625    -3.5966    -3.5761 H       
  68 H68           -1.4976    -4.8534    -3.7761 H       
  69 H69           -4.3054    -5.1154    -2.7152 H       
  70 H70           -3.2643    -6.1719    -4.8480 H       
  71 H71           -2.4077    -7.2647    -3.7343 H       
  72 H72           -5.2047    -7.2052    -3.1390 H       
  73 H73           -2.7117    -8.3805    -5.4681 H       
  74 H74           -2.9636   -10.4495    -6.8165 H       
  75 H75           -5.0389   -11.7948    -6.5603 H       
  76 H76           -6.7759   -11.0472    -4.9890 H       
  77 H77           -5.0847    -8.2214     1.1174 H       
  78 H78           -4.3276    -8.9344     3.3463 H       
  79 H79           -1.9711    -8.6594     3.9965 H       
  80 H80           -0.3580    -7.6725     2.4229 H       
  81 H81           -1.0922    -6.9630     0.1852 H       
@<TRIPOS>BOND
   1    1    2 1
   2    1    4 2
   3    1    5 1
   4    2    3 1
   5    2    6 1
   6    2   45 1
   7    3   19 1
   8    3   46 1
   9    3   47 1
  10    5   48 1
  11    6    7 am
  12    6   49 1
  13    7    8 2
  14    7    9 2
  15    7   10 1
  16   10   11 ar
  17   10   15 ar
  18   11   12 ar
  19   11   18 1
  20   12   13 ar
  21   12   50 1
  22   13   14 ar
  23   13   17 1
  24   14   15 ar
  25   14   51 1
  26   15   16 1
  27   16   52 1
  28   16   53 1
  29   16   54 1
  30   17   55 1
  31   17   56 1
  32   17   57 1
  33   18   58 1
  34   18   59 1
  35   18   60 1
  36   19   20 am
  37   19   61 1
  38   20   21 2
  39   20   22 1
  40   22   23 1
  41   22   62 1
  42   22   63 1
  43   23   26 1
  44   24   25 1
  45   24   28 1
  46   24   37 am
  47   25   26 1
  48   25   64 1
  49   25   65 1
  50   26   27 1
  51   26   66 1
  52   27   28 1
  53   27   67 1
  54   27   68 1
  55   28   29 1
  56   28   69 1
  57   29   30 1
  58   29   70 1
  59   29   71 1
  60   30   31 1
  61   30   72 1
  62   31   32 ar
  63   31   36 ar
  64   32   33 ar
  65   32   73 1
  66   33   34 ar
  67   33   74 1
  68   34   35 ar
  69   34   75 1
  70   35   36 ar
  71   35   76 1
  72   37   38 1
  73   37   44 2
  74   38   39 ar
  75   38   43 ar
  76   39   40 ar
  77   39   77 1
  78   40   41 ar
  79   40   78 1
  80   41   42 ar
  81   41   79 1
  82   42   43 ar
  83   42   80 1
  84   43   81 1

#	End of record

