#	Name: ASD06590026
#	Creating user name:	WinNT
#	Creation time:	15. 06. 2019 21:06

#	Modifying user name:	WinNT
#	Modification time:	15. 06. 2019 21:06

#	Program:	/corina/corina34_cracker 3.40 0067  02.08.2006

@<TRIPOS>MOLECULE
ASD06590026
 310  314    0    0    0
SMALL
NO_CHARGES


@<TRIPOS>ATOM
   1 C1             0.1703     2.6600    -8.1624 C.2     
   2 O2             0.2206     1.4483    -8.1694 O.2     
   3 N3             2.5442     2.5627    -8.6564 N.am    
   4 C4             1.4156     3.4673    -8.4240 C.3     
   5 C5            -3.4240     3.3163    -8.0465 C.2     
   6 O6            -3.2887     4.4429    -8.4745 O.2     
   7 N7            -1.0004     3.2845    -7.9262 N.am    
   8 C8            -2.2123     2.4997    -7.6778 C.3     
   9 C9            -2.2819     2.1240    -6.1963 C.3     
  10 O10           -2.4312     3.3086    -5.4110 O.3     
  11 C11           -7.0286     3.0979    -7.4791 C.2     
  12 O12           -6.9066     2.1760    -6.7006 O.2     
  13 N13           -4.6581     2.7946    -7.9005 N.am    
  14 C14           -5.8360     3.5884    -8.2589 C.3     
  15 C15           -6.1118     3.4441    -9.7569 C.3     
  16 C16           -4.9724     4.0466   -10.5378 C.ar    
  17 C17           -3.8910     3.2631   -10.8963 C.ar    
  18 C18           -2.8450     3.8132   -11.6117 C.ar    
  19 C19           -2.8805     5.1528   -11.9708 C.ar    
  20 O20           -1.8529     5.6961   -12.6750 O.3     
  21 C21           -3.9668     5.9366   -11.6102 C.ar    
  22 C22           -5.0127     5.3806   -10.8993 C.ar    
  23 C23          -10.6535     3.5433    -7.6382 C.2     
  24 O24          -10.5915     4.1243    -8.7011 O.2     
  25 N25           -8.2308     3.6837    -7.6468 N.am    
  26 C26           -9.3901     3.2069    -6.8887 C.3     
  27 C27           -9.4157     3.8834    -5.5166 C.3     
  28 C28           -8.2124     3.4492    -4.7200 C.ar    
  29 C29           -7.0356     4.1705    -4.7968 C.ar    
  30 C30           -5.9318     3.7722    -4.0661 C.ar    
  31 C31           -6.0050     2.6529    -3.2582 C.ar    
  32 C32           -7.1820     1.9321    -3.1807 C.ar    
  33 C33           -8.2871     2.3329    -3.9080 C.ar    
  34 C34          -14.2301     3.6187    -6.8865 C.2     
  35 O35          -14.0422     3.4303    -5.7033 O.2     
  36 N36          -11.8521     3.1987    -7.1275 N.am    
  37 C37          -13.0803     3.5258    -7.8562 C.3     
  38 C38          -13.3689     2.4319    -8.8862 C.3     
  39 C39          -12.2621     2.4212    -9.9426 C.3     
  40 C40          -12.5507     1.3272   -10.9726 C.3     
  41 N41          -11.4910     1.3170   -11.9840 N.pl3   
  42 C42          -11.5364     0.4122   -13.0181 C.2     
  43 N43          -12.5224    -0.4365   -13.0987 N.2     
  44 N44          -10.5419     0.4026   -13.9674 N.pl3   
  45 C45          -17.8769     3.7242    -7.1162 C.2     
  46 O46          -17.8651     3.4755    -8.3032 O.2     
  47 N47          -15.4672     3.9112    -7.3342 N.am    
  48 C48          -16.5850     4.0016    -6.3915 C.3     
  49 C49          -16.6305     5.4066    -5.7876 C.3     
  50 C50          -15.3732     5.6419    -4.9482 C.3     
  51 C51          -15.4187     7.0469    -4.3442 C.3     
  52 N52          -14.2147     7.2722    -3.5405 N.pl3   
  53 C53          -14.0333     8.4728    -2.8958 C.2     
  54 N54          -14.9325     9.4107    -2.9997 N.2     
  55 N55          -12.9035     8.6843    -2.1416 N.pl3   
  56 C56          -21.4403     4.1433    -6.4165 C.2     
  57 O57          -21.2243     4.7769    -5.4052 O.2     
  58 N58          -19.0454     3.7524    -6.4452 N.am    
  59 C59          -20.3013     3.4828    -7.1496 C.3     
  60 C60          -20.5395     1.9725    -7.2074 C.3     
  61 C61          -19.4497     1.3165    -8.0576 C.3     
  62 C62          -19.6146    -0.2040    -8.0135 C.3     
  63 C63          -19.5702     1.8009    -9.5038 C.3     
  64 C64          -25.0899     3.9442    -6.4781 C.2     
  65 O65          -25.0807     2.9837    -7.2185 O.2     
  66 N66          -22.6990     4.0299    -6.8848 N.am    
  67 C67          -23.8063     4.6720    -6.1721 C.3     
  68 C68          -23.9263     6.1291    -6.6230 C.3     
  69 C69          -22.6918     6.8869    -6.2073 C.2     
  70 C70          -21.8875     7.5970    -7.0212 C.2     
  71 N71          -20.8932     8.1190    -6.2385 N.pl3   
  72 C72          -21.1247     7.7095    -4.9727 C.2     
  73 N73          -22.2048     6.9771    -4.9608 N.2     
  74 C74          -28.6613     4.5906    -6.0417 C.2     
  75 O75          -28.4685     5.7370    -5.6957 O.2     
  76 N76          -26.2481     4.3607    -5.9288 N.am    
  77 C77          -27.4960     3.6531    -6.2263 C.3     
  78 C78          -27.6450     2.4615    -5.2783 C.3     
  79 O79          -27.7889     2.9345    -3.9375 O.3     
  80 C80          -32.2932     4.2698    -5.7777 C.2     
  81 O81          -32.2378     3.0598    -5.7171 O.2     
  82 N82          -29.9178     4.1552    -6.2610 N.am    
  83 C83          -31.0506     5.0666    -6.0815 C.3     
  84 C84          -31.2635     5.8743    -7.3635 C.3     
  85 C85          -29.9622     6.5853    -7.7402 C.3     
  86 O86          -31.6495     4.9951    -8.4218 O.3     
  87 C87          -35.8898     4.9172    -5.6883 C.2     
  88 O88          -35.7603     6.0186    -6.1791 O.2     
  89 N89          -33.4659     4.9019    -5.5734 N.am    
  90 C90          -34.6737     4.1273    -5.2780 C.3     
  91 C91          -34.7379     3.8349    -3.7776 C.3     
  92 C92          -33.5696     2.9286    -3.3843 C.3     
  93 C93          -33.6337     2.6362    -1.8838 C.3     
  94 N94          -32.5151     1.7685    -1.5072 N.pl3   
  95 C95          -32.3646     1.3693    -0.2002 C.2     
  96 N96          -31.3693     0.5972     0.1349 N.2     
  97 N97          -33.2638     1.7844     0.7533 N.pl3   
  98 C98          -38.7371     5.9303    -4.5428 C.2     
  99 O99          -38.1157     5.7779    -3.5124 O.2     
 100 N100         -37.1213     4.3995    -5.5098 N.am    
 101 C101         -38.3061     5.2124    -5.7957 C.3     
 102 C102         -39.4405     4.3076    -6.2809 C.3     
 103 C103         -39.0660     3.7004    -7.6083 C.2     
 104 O104         -37.9642     3.8966    -8.0757 O.2     
 105 N105         -39.9555     2.9393    -8.2762 N.am    
 106 C106         -41.7030     7.7560    -3.4322 C.2     
 107 O107         -42.3388     7.4307    -4.4124 O.2     
 108 N108         -39.8130     6.7417    -4.5672 N.am    
 109 C109         -40.2319     7.4395    -3.3491 C.3     
 110 C110         -39.4378     8.7396    -3.2074 C.3     
 111 C111         -37.9800     8.4178    -3.0012 C.ar    
 112 C112         -37.1395     8.2940    -4.0921 C.ar    
 113 C113         -35.8030     7.9987    -3.9057 C.ar    
 114 C114         -35.3041     7.8267    -2.6226 C.ar    
 115 O115         -33.9896     7.5365    -2.4367 O.3     
 116 C116         -36.1494     7.9519    -1.5297 C.ar    
 117 C117         -37.4841     8.2525    -1.7212 C.ar    
 118 C118         -44.1047     9.8562    -1.6714 C.2     
 119 O119         -43.3194    10.3016    -0.8616 O.2     
 120 N120         -42.3120     8.4006    -2.4173 N.am    
 121 C121         -43.7614     8.6113    -2.4481 C.3     
 122 C122         -44.4653     7.4072    -1.8190 C.3     
 123 C123         -45.9804     7.5809    -1.9413 C.3     
 124 C124         -46.3833     7.5205    -3.4161 C.3     
 125 C125         -44.0811     7.3067    -0.3414 C.3     
 126 C126         -46.1153    11.4789     0.1705 C.2     
 127 O127         -46.2507    10.3419     0.5562 O.2     
 128 N128         -45.2845    10.4746    -1.8765 N.am    
 129 C129         -45.5706    11.7468    -1.2089 C.3     
 130 C130         -46.6040    12.5287    -2.0223 C.3     
 131 C131         -46.0136    12.9030    -3.3574 C.2     
 132 C132         -46.5414    12.6197    -4.5635 C.2     
 133 N133         -45.6897    13.1395    -5.5005 N.pl3   
 134 C134         -44.6703    13.7227    -4.8339 C.2     
 135 N135         -44.8733    13.5817    -3.5525 N.2     
 136 O136         -46.4501    12.5034     0.9705 O.3     
 137 C137           3.7685     3.0646    -8.9128 C.2     
 138 O138           3.9358     4.2652    -8.9511 O.2     
 139 C139          22.0306     1.2581   -12.7101 C.3     
 140 C140          20.8519     2.2029   -12.4674 C.3     
 141 C141          19.5876     1.3832   -12.2018 C.3     
 142 C142          18.4089     2.3280   -11.9590 C.3     
 143 C143          17.1446     1.5083   -11.6934 C.3     
 144 C144          15.9659     2.4531   -11.4507 C.3     
 145 C145          14.7016     1.6335   -11.1851 C.3     
 146 C146          13.5229     2.5783   -10.9424 C.3     
 147 C147          12.2585     1.7586   -10.6768 C.3     
 148 C148          11.0798     2.7034   -10.4341 C.3     
 149 C149           9.8155     1.8837   -10.1685 C.3     
 150 C150           8.6368     2.8285    -9.9258 C.3     
 151 C151           7.3725     2.0089    -9.6602 C.3     
 152 C152           6.1938     2.9537    -9.4174 C.3     
 153 C153           4.9295     2.1340    -9.1519 C.3     
 154 H154           2.4104     1.6025    -8.6258 H       
 155 H155           1.2647     4.0934    -9.3035 H       
 156 H156           1.6275     4.0984    -7.5609 H       
 157 H157          -1.0407     4.2537    -7.9206 H       
 158 H158          -2.1879     1.5927    -8.2819 H       
 159 H159          -3.1348     1.4666    -6.0279 H       
 160 H160          -1.3647     1.6103    -5.9082 H       
 161 H161          -2.4823     3.1456    -4.4592 H       
 162 H162          -4.7663     1.8935    -7.5582 H       
 163 H163          -5.6534     4.6367    -8.0224 H       
 164 H164          -6.2065     2.3879   -10.0089 H       
 165 H165          -7.0377     3.9618   -10.0075 H       
 166 H166          -3.8639     2.2204   -10.6166 H       
 167 H167          -2.0003     3.2010   -11.8910 H       
 168 H168          -1.9606     5.6401   -13.6343 H       
 169 H169          -3.9966     6.9798   -11.8883 H       
 170 H170          -5.8606     5.9893   -10.6222 H       
 171 H171          -8.3284     4.4211    -8.2694 H       
 172 H172          -9.3208     2.1267    -6.7599 H       
 173 H173          -9.3954     4.9657    -5.6447 H       
 174 H174         -10.3245     3.5972    -4.9872 H       
 175 H175          -6.9785     5.0450    -5.4280 H       
 176 H176          -5.0123     4.3353    -4.1267 H       
 177 H177          -5.1424     2.3413    -2.6879 H       
 178 H178          -7.2390     1.0574    -2.5497 H       
 179 H179          -9.2078     1.7720    -3.8446 H       
 180 H180         -11.9017     2.7341    -6.2775 H       
 181 H181         -12.9567     4.4813    -8.3659 H       
 182 H182         -13.4043     1.4634    -8.3874 H       
 183 H183         -14.3275     2.6286    -9.3663 H       
 184 H184         -12.2266     3.3897   -10.4414 H       
 185 H185         -11.3035     2.2244    -9.4625 H       
 186 H186         -12.5862     0.3587   -10.4737 H       
 187 H187         -13.5093     1.5240   -11.4526 H       
 188 H188         -10.7572     1.9486   -11.9241 H       
 189 H189         -12.5545    -1.0749   -13.8283 H       
 190 H190          -9.8082     1.0342   -13.9074 H       
 191 H191         -10.5740    -0.2357   -14.6970 H       
 192 H192         -15.6175     4.0620    -8.2806 H       
 193 H193         -16.4498     3.2684    -5.5963 H       
 194 H194         -16.6764     6.1449    -6.5881 H       
 195 H195         -17.5129     5.5016    -5.1547 H       
 196 H196         -15.3273     4.9036    -4.1476 H       
 197 H197         -14.4908     5.5469    -5.5811 H       
 198 H198         -15.4645     7.7852    -5.1448 H       
 199 H199         -16.3011     7.1419    -3.7114 H       
 200 H200         -13.5456     6.5742    -3.4632 H       
 201 H201         -14.8046    10.2578    -2.5448 H       
 202 H202         -12.2343     7.9863    -2.0643 H       
 203 H203         -12.7755     9.5314    -1.6867 H       
 204 H204         -19.0549     3.9513    -5.4959 H       
 205 H205         -20.2422     3.8803    -8.1628 H       
 206 H206         -20.5102     1.5612    -6.1985 H       
 207 H207         -21.5150     1.7753    -7.6520 H       
 208 H208         -18.4698     1.5872    -7.6642 H       
 209 H209         -20.5945    -0.4747    -8.4069 H       
 210 H210         -18.8382    -0.6714    -8.6192 H       
 211 H211         -19.5288    -0.5491    -6.9832 H       
 212 H212         -19.4527     2.8841    -9.5352 H       
 213 H213         -18.7938     1.3335   -10.1095 H       
 214 H214         -20.5501     1.5302    -9.8972 H       
 215 H215         -22.8718     3.5232    -7.6936 H       
 216 H216         -23.6162     4.6381    -5.0993 H       
 217 H217         -24.0276     6.1667    -7.7076 H       
 218 H218         -24.8034     6.5816    -6.1603 H       
 219 H219         -22.0043     7.7289    -8.0867 H       
 220 H220         -20.1594     8.6786    -6.5373 H       
 221 H221         -20.5186     7.9513    -4.1121 H       
 222 H222         -26.2554     5.1289    -5.3366 H       
 223 H223         -27.4754     3.2975    -7.2564 H       
 224 H224         -28.5266     1.8839    -5.5564 H       
 225 H225         -26.7597     1.8292    -5.3475 H       
 226 H226         -27.8883     2.2315    -3.2810 H       
 227 H227         -30.0720     3.2384    -6.5377 H       
 228 H228         -30.8432     5.7457    -5.2545 H       
 229 H229         -32.0477     6.6137    -7.2011 H       
 230 H230         -29.1780     5.8459    -7.9026 H       
 231 H231         -30.1138     7.1607    -8.6535 H       
 232 H232         -29.6677     7.2559    -6.9330 H       
 233 H233         -30.9973     4.3097    -8.6214 H       
 234 H234         -33.5101     5.8697    -5.6219 H       
 235 H235         -34.6472     3.1881    -5.8305 H       
 236 H236         -34.6749     4.7706    -3.2221 H       
 237 H237         -35.6788     3.3365    -3.5445 H       
 238 H238         -33.6326     1.9930    -3.9398 H       
 239 H239         -32.6287     3.4270    -3.6174 H       
 240 H240         -33.5708     3.5719    -1.3283 H       
 241 H241         -34.5747     2.1378    -1.6507 H       
 242 H242         -31.8806     1.4755    -2.1799 H       
 243 H243         -31.2631     0.3155     1.0570 H       
 244 H244         -34.0045     2.3590     0.5039 H       
 245 H245         -33.1576     1.5027     1.6754 H       
 246 H246         -37.2232     3.4887    -5.1921 H       
 247 H247         -38.0678     5.9426    -6.5691 H       
 248 H248         -39.6089     3.5140    -5.5529 H       
 249 H249         -40.3512     4.8957    -6.3943 H       
 250 H250         -40.8367     2.7824    -7.9024 H       
 251 H251         -39.7145     2.5485    -9.1306 H       
 252 H252         -40.3099     6.8635    -5.3913 H       
 253 H253         -40.0454     6.8037    -2.4837 H       
 254 H254         -39.5536     9.3365    -4.1120 H       
 255 H255         -39.8105     9.3015    -2.3511 H       
 256 H256         -37.5283     8.4280    -5.0907 H       
 257 H257         -35.1470     7.9014    -4.7581 H       
 258 H258         -33.4249     8.3154    -2.3388 H       
 259 H259         -35.7636     7.8181    -0.5299 H       
 260 H260         -38.1417     8.3544    -0.8705 H       
 261 H261         -41.7906     8.7251    -1.6665 H       
 262 H262         -44.0901     8.7253    -3.4811 H       
 263 H263         -44.1609     6.4973    -2.3363 H       
 264 H264         -46.4830     6.7832    -1.3944 H       
 265 H265         -46.2704     8.5456    -1.5248 H       
 266 H266         -46.0108     6.5958    -3.8569 H       
 267 H267         -47.4698     7.5499    -3.4975 H       
 268 H268         -45.9562     8.3727    -3.9447 H       
 269 H269         -44.3125     8.2470     0.1590 H       
 270 H270         -44.6435     6.4984     0.1260 H       
 271 H271         -43.0137     7.1030    -0.2566 H       
 272 H272         -45.9443    10.0773    -2.4663 H       
 273 H273         -44.6532    12.3302    -1.1302 H       
 274 H274         -47.4883    11.9104    -2.1766 H       
 275 H275         -46.8829    13.4333    -1.4819 H       
 276 H276         -47.4600    12.0849    -4.7547 H       
 277 H277         -45.7981    13.0969    -6.4635 H       
 278 H278         -43.8286    14.2261    -5.2862 H       
 279 H279         -46.7951    12.2819     1.8463 H       
 280 H280          22.1815     0.6320   -11.8306 H       
 281 H281          21.8187     0.6271   -13.5732 H       
 282 H282          22.9314     1.8420   -12.8993 H       
 283 H283          21.0638     2.8339   -11.6042 H       
 284 H284          20.7010     2.8289   -13.3468 H       
 285 H285          19.3757     0.7522   -13.0649 H       
 286 H286          19.7385     0.7572   -11.3223 H       
 287 H287          18.6208     2.9590   -11.0959 H       
 288 H288          18.2580     2.9540   -12.8385 H       
 289 H289          16.9327     0.8773   -12.5566 H       
 290 H290          17.2955     0.8823   -10.8140 H       
 291 H291          16.1778     3.0842   -10.5876 H       
 292 H292          15.8150     3.0792   -12.3302 H       
 293 H293          14.4896     1.0025   -12.0483 H       
 294 H294          14.8525     1.0074   -10.3057 H       
 295 H295          13.7348     3.2093   -10.0793 H       
 296 H296          13.3719     3.2043   -11.8218 H       
 297 H297          12.0466     1.1276   -11.5399 H       
 298 H298          12.4095     1.1326    -9.7974 H       
 299 H299          11.2918     3.3344    -9.5709 H       
 300 H300          10.9289     3.3294   -11.3135 H       
 301 H301           9.6036     1.2527   -11.0316 H       
 302 H302           9.9664     1.2577    -9.2890 H       
 303 H303           8.8487     3.4596    -9.0626 H       
 304 H304           8.4859     3.4546   -10.8052 H       
 305 H305           7.1606     1.3779   -10.5233 H       
 306 H306           7.5234     1.3829    -8.7807 H       
 307 H307           6.4057     3.5847    -8.5543 H       
 308 H308           6.0429     3.5797   -10.2969 H       
 309 H309           5.0804     1.5080    -8.2724 H       
 310 H310           4.7176     1.5030   -10.0150 H       
@<TRIPOS>BOND
   1    1    2 2
   2    1    4 1
   3    1    7 am
   4    3    4 1
   5    3  137 am
   6    3  154 1
   7    4  155 1
   8    4  156 1
   9    5    6 2
  10    5    8 1
  11    5   13 am
  12    7    8 1
  13    7  157 1
  14    8    9 1
  15    8  158 1
  16    9   10 1
  17    9  159 1
  18    9  160 1
  19   10  161 1
  20   11   12 2
  21   11   14 1
  22   11   25 am
  23   13   14 1
  24   13  162 1
  25   14   15 1
  26   14  163 1
  27   15   16 1
  28   15  164 1
  29   15  165 1
  30   16   17 ar
  31   16   22 ar
  32   17   18 ar
  33   17  166 1
  34   18   19 ar
  35   18  167 1
  36   19   20 1
  37   19   21 ar
  38   20  168 1
  39   21   22 ar
  40   21  169 1
  41   22  170 1
  42   23   24 2
  43   23   26 1
  44   23   36 am
  45   25   26 1
  46   25  171 1
  47   26   27 1
  48   26  172 1
  49   27   28 1
  50   27  173 1
  51   27  174 1
  52   28   29 ar
  53   28   33 ar
  54   29   30 ar
  55   29  175 1
  56   30   31 ar
  57   30  176 1
  58   31   32 ar
  59   31  177 1
  60   32   33 ar
  61   32  178 1
  62   33  179 1
  63   34   35 2
  64   34   37 1
  65   34   47 am
  66   36   37 1
  67   36  180 1
  68   37   38 1
  69   37  181 1
  70   38   39 1
  71   38  182 1
  72   38  183 1
  73   39   40 1
  74   39  184 1
  75   39  185 1
  76   40   41 1
  77   40  186 1
  78   40  187 1
  79   41   42 1
  80   41  188 1
  81   42   43 2
  82   42   44 1
  83   43  189 1
  84   44  190 1
  85   44  191 1
  86   45   46 2
  87   45   48 1
  88   45   58 am
  89   47   48 1
  90   47  192 1
  91   48   49 1
  92   48  193 1
  93   49   50 1
  94   49  194 1
  95   49  195 1
  96   50   51 1
  97   50  196 1
  98   50  197 1
  99   51   52 1
 100   51  198 1
 101   51  199 1
 102   52   53 1
 103   52  200 1
 104   53   54 2
 105   53   55 1
 106   54  201 1
 107   55  202 1
 108   55  203 1
 109   56   57 2
 110   56   59 1
 111   56   66 am
 112   58   59 1
 113   58  204 1
 114   59   60 1
 115   59  205 1
 116   60   61 1
 117   60  206 1
 118   60  207 1
 119   61   62 1
 120   61   63 1
 121   61  208 1
 122   62  209 1
 123   62  210 1
 124   62  211 1
 125   63  212 1
 126   63  213 1
 127   63  214 1
 128   64   65 2
 129   64   67 1
 130   64   76 am
 131   66   67 1
 132   66  215 1
 133   67   68 1
 134   67  216 1
 135   68   69 1
 136   68  217 1
 137   68  218 1
 138   69   70 2
 139   69   73 1
 140   70   71 1
 141   70  219 1
 142   71   72 1
 143   71  220 1
 144   72   73 2
 145   72  221 1
 146   74   75 2
 147   74   77 1
 148   74   82 am
 149   76   77 1
 150   76  222 1
 151   77   78 1
 152   77  223 1
 153   78   79 1
 154   78  224 1
 155   78  225 1
 156   79  226 1
 157   80   81 2
 158   80   83 1
 159   80   89 am
 160   82   83 1
 161   82  227 1
 162   83   84 1
 163   83  228 1
 164   84   85 1
 165   84   86 1
 166   84  229 1
 167   85  230 1
 168   85  231 1
 169   85  232 1
 170   86  233 1
 171   87   88 2
 172   87   90 1
 173   87  100 am
 174   89   90 1
 175   89  234 1
 176   90   91 1
 177   90  235 1
 178   91   92 1
 179   91  236 1
 180   91  237 1
 181   92   93 1
 182   92  238 1
 183   92  239 1
 184   93   94 1
 185   93  240 1
 186   93  241 1
 187   94   95 1
 188   94  242 1
 189   95   96 2
 190   95   97 1
 191   96  243 1
 192   97  244 1
 193   97  245 1
 194   98   99 2
 195   98  101 1
 196   98  108 am
 197  100  101 1
 198  100  246 1
 199  101  102 1
 200  101  247 1
 201  102  103 1
 202  102  248 1
 203  102  249 1
 204  103  104 2
 205  103  105 am
 206  105  250 1
 207  105  251 1
 208  106  107 2
 209  106  109 1
 210  106  120 am
 211  108  109 1
 212  108  252 1
 213  109  110 1
 214  109  253 1
 215  110  111 1
 216  110  254 1
 217  110  255 1
 218  111  112 ar
 219  111  117 ar
 220  112  113 ar
 221  112  256 1
 222  113  114 ar
 223  113  257 1
 224  114  115 1
 225  114  116 ar
 226  115  258 1
 227  116  117 ar
 228  116  259 1
 229  117  260 1
 230  118  119 2
 231  118  121 1
 232  118  128 am
 233  120  121 1
 234  120  261 1
 235  121  122 1
 236  121  262 1
 237  122  123 1
 238  122  125 1
 239  122  263 1
 240  123  124 1
 241  123  264 1
 242  123  265 1
 243  124  266 1
 244  124  267 1
 245  124  268 1
 246  125  269 1
 247  125  270 1
 248  125  271 1
 249  126  127 2
 250  126  129 1
 251  126  136 1
 252  128  129 1
 253  128  272 1
 254  129  130 1
 255  129  273 1
 256  130  131 1
 257  130  274 1
 258  130  275 1
 259  131  132 2
 260  131  135 1
 261  132  133 1
 262  132  276 1
 263  133  134 1
 264  133  277 1
 265  134  135 2
 266  134  278 1
 267  136  279 1
 268  137  138 2
 269  137  153 1
 270  139  140 1
 271  139  280 1
 272  139  281 1
 273  139  282 1
 274  140  141 1
 275  140  283 1
 276  140  284 1
 277  141  142 1
 278  141  285 1
 279  141  286 1
 280  142  143 1
 281  142  287 1
 282  142  288 1
 283  143  144 1
 284  143  289 1
 285  143  290 1
 286  144  145 1
 287  144  291 1
 288  144  292 1
 289  145  146 1
 290  145  293 1
 291  145  294 1
 292  146  147 1
 293  146  295 1
 294  146  296 1
 295  147  148 1
 296  147  297 1
 297  147  298 1
 298  148  149 1
 299  148  299 1
 300  148  300 1
 301  149  150 1
 302  149  301 1
 303  149  302 1
 304  150  151 1
 305  150  303 1
 306  150  304 1
 307  151  152 1
 308  151  305 1
 309  151  306 1
 310  152  153 1
 311  152  307 1
 312  152  308 1
 313  153  309 1
 314  153  310 1

#	End of record

