#	Name: ASD01900655
#	Creating user name:	WinNT
#	Creation time:	15. 06. 2019 19:52

#	Modifying user name:	WinNT
#	Modification time:	15. 06. 2019 19:52

#	Program:	/corina/corina34_cracker 3.40 0067  02.08.2006

@<TRIPOS>MOLECULE
ASD01900655
  38   41    0    0    0
SMALL
NO_CHARGES


@<TRIPOS>ATOM
   1 C1            -0.0160     1.4173    -0.1155 C.ar    
   2 C2             0.0117     0.0198    -0.1194 C.ar    
   3 C3            -1.1590    -0.7038    -0.0671 C.ar    
   4 C4            -2.3839    -0.0488    -0.0094 C.ar    
   5 C5            -2.4139     1.3538    -0.0097 C.ar    
   6 O6            -3.5340    -0.7533     0.0540 O.3     
   7 C7            -4.7273    -0.1835    -0.1862 C.2     
   8 C8            -4.9098     1.1579    -0.2021 C.2     
   9 C9            -3.7393     2.0230     0.0390 C.2     
  10 C10           -5.8888    -1.0579    -0.4441 C.ar    
  11 N11           -7.0819    -0.5065    -0.6845 N.ar    
  12 C12           -8.1548    -1.2191    -0.9211 C.ar    
  13 C13           -8.0849    -2.6234    -0.9297 C.ar    
  14 C14           -6.8347    -3.2491    -0.6787 C.ar    
  15 C15           -5.7174    -2.4334    -0.4373 C.ar    
  16 C16           -9.2130    -3.4195    -1.1783 C.ar    
  17 C17           -9.0922    -4.7765    -1.1751 C.ar    
  18 C18           -7.8654    -5.3897    -0.9283 C.ar    
  19 C19           -6.7481    -4.6497    -0.6838 C.ar    
  20 C20           -1.2379     2.0862    -0.0549 C.ar    
  21 C21            1.2465     2.1837    -0.1692 C.2     
  22 C22            2.4076     1.5457    -0.2213 C.2     
  23 N23           -3.8615     3.3053     0.2813 N.2     
  24 O24           -2.7270     4.0669     0.6526 O.3     
  25 H25            0.9591    -0.4969    -0.1642 H       
  26 H26           -1.1253    -1.7832    -0.0713 H       
  27 H27           -5.8854     1.5830    -0.3863 H       
  28 H28           -9.0970    -0.7263    -1.1100 H       
  29 H29           -4.7482    -2.8681    -0.2421 H       
  30 H30          -10.1710    -2.9596    -1.3706 H       
  31 H31           -9.9621    -5.3874    -1.3667 H       
  32 H32           -7.7994    -6.4677    -0.9314 H       
  33 H33           -5.8032    -5.1372    -0.4943 H       
  34 H34           -1.2682     3.1658    -0.0511 H       
  35 H35            1.2233     3.2634    -0.1661 H       
  36 H36            3.3302     2.1058    -0.2606 H       
  37 H37            2.4308     0.4660    -0.2244 H       
  38 H38           -2.9156     5.0021     0.8105 H       
@<TRIPOS>BOND
   1    1    2 ar
   2    1   21 1
   3    1   20 ar
   4    2    3 ar
   5    2   25 1
   6    3    4 ar
   7    3   26 1
   8    4    5 ar
   9    4    6 1
  10    5   20 ar
  11    5    9 1
  12    6    7 1
  13    7    8 2
  14    7   10 1
  15    8    9 1
  16    8   27 1
  17    9   23 2
  18   10   11 ar
  19   10   15 ar
  20   11   12 ar
  21   12   13 ar
  22   12   28 1
  23   13   14 ar
  24   13   16 ar
  25   14   15 ar
  26   14   19 ar
  27   15   29 1
  28   16   17 ar
  29   16   30 1
  30   17   18 ar
  31   17   31 1
  32   18   19 ar
  33   18   32 1
  34   19   33 1
  35   20   34 1
  36   21   22 2
  37   21   35 1
  38   22   36 1
  39   22   37 1
  40   23   24 1
  41   24   38 1

#	End of record

