#	Name: ASD07300625
#	Creating user name:	WinNT
#	Creation time:	15. 06. 2019 21:10

#	Modifying user name:	WinNT
#	Modification time:	15. 06. 2019 21:10

#	Program:	/corina/corina34_cracker 3.40 0067  02.08.2006

@<TRIPOS>MOLECULE
ASD07300625
  12   12    0    0    0
SMALL
NO_CHARGES


@<TRIPOS>ATOM
   1 N1            -0.0168     1.3866     0.0097 N.pl3   
   2 C2             0.0021    -0.0041     0.0020 C.ar    
   3 C3             1.2181    -0.6870    -0.0133 C.ar    
   4 N4            -1.1359    -0.6846     0.0148 N.ar    
   5 N5             1.2308    -2.0069    -0.0200 N.ar    
   6 C6             0.0918    -2.6810    -0.0123 C.ar    
   7 C7            -1.1143    -2.0072     0.0079 C.ar    
   8 I8             0.1177    -4.7758    -0.0231 I       
   9 Cl9            2.7121     0.1972    -0.0240 Cl      
  10 H10            0.8166     1.8830     0.0044 H       
  11 H11           -0.8633     1.8601     0.0163 H       
  12 H12           -2.0412    -2.5614     0.0187 H       
@<TRIPOS>BOND
   1    1    2 1
   2    1   10 1
   3    1   11 1
   4    2    3 ar
   5    2    4 ar
   6    3    5 ar
   7    3    9 1
   8    4    7 ar
   9    5    6 ar
  10    6    7 ar
  11    6    8 1
  12    7   12 1

#	End of record

