#	Name: ASD01881419
#	Creating user name:	WinNT
#	Creation time:	15. 06. 2019 19:42

#	Modifying user name:	WinNT
#	Modification time:	15. 06. 2019 19:42

#	Program:	/corina/corina34_cracker 3.40 0067  02.08.2006

@<TRIPOS>MOLECULE
ASD01881419
  58   59    0    0    0
SMALL
NO_CHARGES


@<TRIPOS>ATOM
   1 C1            -0.0179     1.4705     0.0101 C.2     
   2 C2             0.0021    -0.0041     0.0020 C.ar    
   3 C3             1.2214    -0.6883    -0.0133 C.ar    
   4 C4             1.2346    -2.0690    -0.0209 C.ar    
   5 C5             0.0336    -2.7778    -0.0133 C.ar    
   6 C6            -1.1768    -2.0986     0.0015 C.ar    
   7 C7            -1.1973    -0.7207     0.0154 C.ar    
   8 O8             1.0260     2.0923     0.0035 O.2     
   9 O9            -1.1939     2.1283     0.0193 O.3     
  10 O10            0.0484    -4.1356    -0.0208 O.3     
  11 C11           -1.2177    -4.7982    -0.0123 C.3     
  12 O12            2.4188    -2.7376    -0.0362 O.3     
  13 C13            3.6097    -1.9479    -0.0438 C.3     
  14 C14            4.8319    -2.8682    -0.0609 C.3     
  15 C15            6.1070    -2.0226    -0.0689 C.3     
  16 C16            7.3291    -2.9429    -0.0860 C.3     
  17 O17            8.5200    -2.1532    -0.0936 O.3     
  18 C18            9.7013    -2.8202    -0.1089 C.ar    
  19 C19           10.8944    -2.1113    -0.1169 C.ar    
  20 C20           12.1005    -2.7896    -0.1320 C.ar    
  21 C21           12.1066    -4.1964    -0.1392 C.ar    
  22 C22           10.8919    -4.8953    -0.1310 C.ar    
  23 C23            9.7106    -4.2125    -0.1107 C.ar    
  24 C24           10.8765    -0.6044    -0.1096 C.3     
  25 O25           13.2695    -2.1023    -0.1403 O.3     
  26 C26           13.3762    -4.9269    -0.1557 C.2     
  27 O27           14.4261    -4.3187    -0.1633 O.2     
  28 C28           13.3783    -6.4339    -0.1634 C.3     
  29 C29           14.8214    -6.9418    -0.1806 C.3     
  30 C30           14.8236    -8.4718    -0.1883 C.3     
  31 H31            2.1508    -0.1381    -0.0195 H       
  32 H32           -2.1047    -2.6513     0.0070 H       
  33 H33           -2.1404    -0.1948     0.0320 H       
  34 H34           -1.1564     3.0946     0.0244 H       
  35 H35           -1.7863    -4.5066    -0.8953 H       
  36 H36           -1.0631    -5.8772    -0.0196 H       
  37 H37           -1.7693    -4.5162     0.8845 H       
  38 H38            3.6198    -1.3140    -0.9305 H       
  39 H39            3.6374    -1.3236     0.8494 H       
  40 H40            4.8218    -3.5020     0.8259 H       
  41 H41            4.8042    -3.4924    -0.9540 H       
  42 H42            6.1170    -1.3888    -0.9556 H       
  43 H43            6.1346    -1.3984     0.8242 H       
  44 H44            7.3191    -3.5767     0.8007 H       
  45 H45            7.3014    -3.5671    -0.9792 H       
  46 H46           10.8909    -5.9753    -0.1364 H       
  47 H47            8.7771    -4.7555    -0.0999 H       
  48 H48           10.8820    -0.2460     0.9198 H       
  49 H49           11.7572    -0.2281    -0.6300 H       
  50 H50            9.9774    -0.2493    -0.6132 H       
  51 H51           13.6173    -1.9072     0.7406 H       
  52 H52           12.8740    -6.8025     0.7299 H       
  53 H53           12.8560    -6.7935    -1.0500 H       
  54 H54           15.3257    -6.5732    -1.0738 H       
  55 H55           15.3437    -6.5823     0.7060 H       
  56 H56           15.8517    -8.8336    -0.2005 H       
  57 H57           14.3193    -8.8404     0.7049 H       
  58 H58           14.3013    -8.8314    -1.0749 H       
@<TRIPOS>BOND
   1    1    2 1
   2    1    8 2
   3    1    9 1
   4    2    3 ar
   5    2    7 ar
   6    3    4 ar
   7    3   31 1
   8    4    5 ar
   9    4   12 1
  10    5    6 ar
  11    5   10 1
  12    6    7 ar
  13    6   32 1
  14    7   33 1
  15    9   34 1
  16   10   11 1
  17   11   35 1
  18   11   36 1
  19   11   37 1
  20   12   13 1
  21   13   14 1
  22   13   38 1
  23   13   39 1
  24   14   15 1
  25   14   40 1
  26   14   41 1
  27   15   16 1
  28   15   42 1
  29   15   43 1
  30   16   17 1
  31   16   44 1
  32   16   45 1
  33   17   18 1
  34   18   19 ar
  35   18   23 ar
  36   19   20 ar
  37   19   24 1
  38   20   21 ar
  39   20   25 1
  40   21   22 ar
  41   21   26 1
  42   22   23 ar
  43   22   46 1
  44   23   47 1
  45   24   48 1
  46   24   49 1
  47   24   50 1
  48   25   51 1
  49   26   27 2
  50   26   28 1
  51   28   29 1
  52   28   52 1
  53   28   53 1
  54   29   30 1
  55   29   54 1
  56   29   55 1
  57   30   56 1
  58   30   57 1
  59   30   58 1

#	End of record

