#	Name: ASD06020119
#	Creating user name:	WinNT
#	Creation time:	15. 06. 2019 21:04

#	Modifying user name:	WinNT
#	Modification time:	15. 06. 2019 21:04

#	Program:	/corina/corina34_cracker 3.40 0067  02.08.2006

@<TRIPOS>MOLECULE
ASD06020119
  38   41    0    0    0
SMALL
NO_CHARGES


@<TRIPOS>ATOM
   1 C1             0.0069    -0.0032     0.0569 C.1     
   2 C2            -0.0132     1.4287     0.0547 C.ar    
   3 C3             1.1868     2.1441     0.0333 C.ar    
   4 C4             1.1677     3.5218     0.0316 C.ar    
   5 C5            -0.0523     4.2037     0.0507 C.ar    
   6 C6            -1.2526     3.4878     0.0716 C.ar    
   7 C7            -1.2330     2.1101     0.0679 C.ar    
   8 N8             0.0229    -1.1391     0.0587 N.1     
   9 C9            -0.8919     9.4871     0.0575 C.ar    
  10 C10           -0.5509     8.1300     0.0543 C.ar    
  11 C11            0.7981     7.7572     0.0328 C.ar    
  12 C12            1.7569     8.8041     0.0159 C.ar    
  13 C13            1.3364    10.0982     0.0213 C.ar    
  14 N14            0.0501    10.4129     0.0404 N.ar    
  15 S15           -1.5295     6.6672     0.0720 S.3     
  16 C16           -0.0730     5.6812     0.0494 C.2     
  17 N17            0.9769     6.4358     0.0314 N.2     
  18 N18           -2.2332     9.8640     0.0731 N.pl3   
  19 C19           -1.9615    13.3980     0.4987 C.ar    
  20 N20           -1.6394    12.1250     0.3894 N.ar    
  21 C21           -2.5759    11.2028     0.1881 C.ar    
  22 C22           -3.9102    11.6042     0.0938 C.ar    
  23 C23           -4.2001    12.9489     0.2146 C.ar    
  24 N24           -3.2108    13.8085     0.4144 N.ar    
  25 C25           -5.6239    13.4336     0.1198 C.3     
  26 O26           -6.4928    12.3199    -0.0964 O.3     
  27 F27            3.0770     8.5176    -0.0048 F       
  28 Cl28          -2.7680     4.3343     0.0953 Cl      
  29 Cl29           2.6588     4.4106     0.0063 Cl      
  30 H30            2.1294     1.6171     0.0186 H       
  31 H31           -2.1605     1.5569     0.0799 H       
  32 H32            2.0711    10.8897     0.0084 H       
  33 H33           -2.9273     9.1899     0.0035 H       
  34 H34           -1.1804    14.1246     0.6665 H       
  35 H35           -4.6956    10.8811    -0.0697 H       
  36 H36           -5.8996    13.9348     1.0477 H       
  37 H37           -5.7153    14.1325    -0.7117 H       
  38 H38           -7.4273    12.5581    -0.1675 H       
@<TRIPOS>BOND
   1    1    2 1
   2    1    8 3
   3    2    3 ar
   4    2    7 ar
   5    3    4 ar
   6    3   30 1
   7    4    5 ar
   8    4   29 1
   9    5    6 ar
  10    5   16 1
  11    6    7 ar
  12    6   28 1
  13    7   31 1
  14    9   10 ar
  15    9   14 ar
  16    9   18 1
  17   10   11 ar
  18   10   15 1
  19   11   12 ar
  20   11   17 1
  21   12   13 ar
  22   12   27 1
  23   13   14 ar
  24   13   32 1
  25   15   16 1
  26   16   17 2
  27   18   21 1
  28   18   33 1
  29   19   20 ar
  30   19   24 ar
  31   19   34 1
  32   20   21 ar
  33   21   22 ar
  34   22   23 ar
  35   22   35 1
  36   23   24 ar
  37   23   25 1
  38   25   26 1
  39   25   36 1
  40   25   37 1
  41   26   38 1

#	End of record

