#	Name: ASD03331528
#	Creating user name:	WinNT
#	Creation time:	15. 06. 2019 20:39

#	Modifying user name:	WinNT
#	Modification time:	15. 06. 2019 20:39

#	Program:	/corina/corina34_cracker 3.40 0067  02.08.2006

@<TRIPOS>MOLECULE
ASD03331528
  19   20    0    0    0
SMALL
NO_CHARGES


@<TRIPOS>ATOM
   1 O1            -0.0161     1.3398     0.0094 O.3     
   2 C2             0.0021    -0.0041     0.0020 C.2     
   3 N3             1.1977    -0.5022    -0.0121 N.2     
   4 C4             2.1410     0.6289    -0.0150 C.3     
   5 C5             1.2319     1.8433     0.0002 C.2     
   6 O6             1.5570     3.0070     0.0030 O.2     
   7 C7            -1.2226    -0.8327     0.0093 C.ar    
   8 C8            -1.1267    -2.2270     0.0014 C.ar    
   9 C9            -2.2757    -2.9957     0.0082 C.ar    
  10 C10           -3.5174    -2.3880     0.0223 C.ar    
  11 C11           -3.6192    -1.0059     0.0297 C.ar    
  12 C12           -2.4788    -0.2261     0.0298 C.ar    
  13 F13           -4.8364    -0.4199     0.0426 F       
  14 F14            0.0861    -2.8222    -0.0133 F       
  15 H15            2.7690     0.6079     0.8756 H       
  16 H16            2.7519     0.6175    -0.9176 H       
  17 H17           -2.2032    -4.0732     0.0021 H       
  18 H18           -4.4120    -2.9930     0.0272 H       
  19 H19           -2.5596     0.8508     0.0408 H       
@<TRIPOS>BOND
   1    1    2 1
   2    1    5 1
   3    2    3 2
   4    2    7 1
   5    3    4 1
   6    4    5 1
   7    4   15 1
   8    4   16 1
   9    5    6 2
  10    7    8 ar
  11    7   12 ar
  12    8    9 ar
  13    8   14 1
  14    9   10 ar
  15    9   17 1
  16   10   11 ar
  17   10   18 1
  18   11   12 ar
  19   11   13 1
  20   12   19 1

#	End of record

