#	Name: ASD01142024
#	Creating user name:	WinNT
#	Creation time:	15. 06. 2019 19:01

#	Modifying user name:	WinNT
#	Modification time:	15. 06. 2019 19:01

#	Program:	/corina/corina34_cracker 3.40 0067  02.08.2006

@<TRIPOS>MOLECULE
ASD01142024
  13   13    0    0    0
SMALL
NO_CHARGES


@<TRIPOS>ATOM
   1 C1            -0.0161     1.3337     0.0094 C.2     
   2 N2             0.0021    -0.0041     0.0020 N.am    
   3 C3            -1.1333    -0.7343     0.0089 C.2     
   4 C4            -2.4506     0.0179     0.0256 C.3     
   5 C5            -2.3580     1.5320     0.0328 C.2     
   6 N6            -1.1251     2.0818     0.0294 N.am    
   7 O7            -3.3543     2.2227     0.0460 O.2     
   8 O8             1.0527     1.9113     0.0023 O.2     
   9 O9            -1.1014    -1.9462     0.0017 O.2     
  10 H10            0.8566    -0.4630    -0.0089 H       
  11 H11           -3.0239    -0.2827    -0.8515 H       
  12 H12           -3.0070    -0.2922     0.9101 H       
  13 H13           -1.0408     3.0481     0.0339 H       
@<TRIPOS>BOND
   1    1    2 am
   2    1    8 2
   3    1    6 am
   4    2    3 am
   5    2   10 1
   6    3    4 1
   7    3    9 2
   8    4    5 1
   9    4   11 1
  10    4   12 1
  11    5    6 am
  12    5    7 2
  13    6   13 1

#	End of record

