#	Name: ASD01209104
#	Creating user name:	WinNT
#	Creation time:	15. 06. 2019 19:10

#	Modifying user name:	WinNT
#	Modification time:	15. 06. 2019 19:10

#	Program:	/corina/corina34_cracker 3.40 0067  02.08.2006

@<TRIPOS>MOLECULE
ASD01209104
  60   62    0    0    0
SMALL
NO_CHARGES


@<TRIPOS>ATOM
   1 C1            -1.7463    -0.7015    -0.1356 C.3     
   2 C2             1.6230    -1.8857    -4.0246 C.ar    
   3 S3            -1.2139    -2.3894    -0.5334 S.o2    
   4 O4            -0.4000    -2.9136     0.5068 O.2     
   5 O5            -2.2957    -3.1409    -1.0665 O.2     
   6 C6             2.5675    -1.7181    -5.1869 C.3     
   7 C7             2.1635    -0.5101    -5.9923 C.2     
   8 N8             2.9446    -0.0826    -7.0040 N.am    
   9 O9             1.1354     0.0773    -5.7301 O.2     
  10 C10            2.5117    -2.9639    -6.0732 C.3     
  11 C11            3.0067    -4.1758    -5.2812 C.3     
  12 C12            2.8006    -5.4614    -6.1013 C.3     
  13 C13            4.1988    -6.0775    -6.3138 C.3     
  14 C14            5.0458    -5.5082    -5.1486 C.3     
  15 C15            4.5230    -4.0556    -5.0240 C.3     
  16 C16            2.1071    -1.8523    -2.7302 C.ar    
  17 C17            1.2409    -2.0065    -1.6641 C.ar    
  18 C18           -0.1097    -2.1933    -1.8923 C.ar    
  19 C19           -0.5938    -2.2268    -3.1867 C.ar    
  20 C20            0.2718    -2.0673    -4.2527 C.ar    
  21 C21            2.5439     1.0009    -7.7841 C.ar    
  22 C22            1.6003     1.9005    -7.2967 C.ar    
  23 P23            1.2194     4.5068   -10.2585 P.3     
  24 O24            2.0995     5.6647    -9.9848 O.2     
  25 O25           -0.3021     4.8926    -9.9003 O.3     
  26 O26            1.3204     4.1122   -11.8162 O.3     
  27 C27           -0.9688     6.0276   -10.4565 C.3     
  28 C28            1.0771     5.0435   -12.8723 C.3     
  29 N29            1.2234     2.9252    -8.0383 N.ar    
  30 C30            1.7410     3.0974    -9.2427 C.ar    
  31 C31            2.6785     2.2056    -9.7299 C.ar    
  32 N32            3.0648     1.1802    -8.9907 N.ar    
  33 H33           -0.8773    -0.0994     0.1298 H       
  34 H34           -2.2413    -0.2629    -1.0021 H       
  35 H35           -2.4404    -0.7279     0.7045 H       
  36 H36            3.5826    -1.5829    -4.8136 H       
  37 H37            3.7857    -0.5289    -7.1892 H       
  38 H38            1.4845    -3.1351    -6.3951 H       
  39 H39            3.1466    -2.8170    -6.9470 H       
  40 H40            2.4711    -4.2470    -4.3346 H       
  41 H41            2.1657    -6.1568    -5.5523 H       
  42 H42            2.3479    -5.2219    -7.0635 H       
  43 H43            4.1497    -7.1648    -6.2540 H       
  44 H44            4.6114    -5.7655    -7.2733 H       
  45 H45            4.8623    -6.0650    -4.2297 H       
  46 H46            6.1060    -5.5168    -5.4016 H       
  47 H47            4.9879    -3.4170    -5.7751 H       
  48 H48            4.7105    -3.6672    -4.0229 H       
  49 H49            3.1623    -1.7063    -2.5519 H       
  50 H50            1.6192    -1.9810    -0.6529 H       
  51 H51           -1.6488    -2.3732    -3.3650 H       
  52 H52           -0.1064    -2.0935    -5.2640 H       
  53 H53            1.1770     1.7601    -6.3131 H       
  54 H54           -0.4285     6.9349   -10.1863 H       
  55 H55           -1.0016     5.9339   -11.5420 H       
  56 H56           -1.9849     6.0798   -10.0655 H       
  57 H57            0.0587     5.4239   -12.7939 H       
  58 H58            1.7813     5.8720   -12.7956 H       
  59 H59            1.2058     4.5451   -13.8331 H       
  60 H60            3.0991     2.3495   -10.7142 H       
@<TRIPOS>BOND
   1    1    3 1
   2    1   33 1
   3    1   34 1
   4    1   35 1
   5    2    6 1
   6    2   16 ar
   7    2   20 ar
   8    3    4 2
   9    3    5 2
  10    3   18 1
  11    6    7 1
  12    6   10 1
  13    6   36 1
  14    7    8 am
  15    7    9 2
  16    8   21 1
  17    8   37 1
  18   10   11 1
  19   10   38 1
  20   10   39 1
  21   11   12 1
  22   11   15 1
  23   11   40 1
  24   12   13 1
  25   12   41 1
  26   12   42 1
  27   13   14 1
  28   13   43 1
  29   13   44 1
  30   14   15 1
  31   14   45 1
  32   14   46 1
  33   15   47 1
  34   15   48 1
  35   16   17 ar
  36   16   49 1
  37   17   18 ar
  38   17   50 1
  39   18   19 ar
  40   19   20 ar
  41   19   51 1
  42   20   52 1
  43   21   22 ar
  44   21   32 ar
  45   22   29 ar
  46   22   53 1
  47   23   24 2
  48   23   25 1
  49   23   26 1
  50   23   30 1
  51   25   27 1
  52   26   28 1
  53   27   54 1
  54   27   55 1
  55   27   56 1
  56   28   57 1
  57   28   58 1
  58   28   59 1
  59   29   30 ar
  60   30   31 ar
  61   31   32 ar
  62   31   60 1

#	End of record

