#	Name: ASD02508160
#	Creating user name:	WinNT
#	Creation time:	15. 06. 2019 20:23

#	Modifying user name:	WinNT
#	Modification time:	15. 06. 2019 20:23

#	Program:	/corina/corina34_cracker 3.40 0067  02.08.2006

@<TRIPOS>MOLECULE
ASD02508160
  29   31    0    0    0
SMALL
NO_CHARGES


@<TRIPOS>ATOM
   1 C1             0.5344     2.0227    -0.3481 C.ar    
   2 C2             0.3147     0.6625    -0.0568 C.ar    
   3 C3             1.8228     2.4637    -0.5501 C.ar    
   4 C4             2.8836     1.5418    -0.4603 C.ar    
   5 C5             2.6544     0.2186    -0.1762 C.ar    
   6 C6             1.3586    -0.2247     0.0284 C.ar    
   7 S7            -0.6921     3.2754    -0.4829 S.3     
   8 C8             0.2790     4.6855    -0.8545 C.2     
   9 S9             1.9559     4.1807    -0.9052 S.3     
  10 S10            4.0031    -0.9104    -0.0711 S.o2    
  11 N11            4.4215    -1.0268     1.5269 N.am    
  12 C12            4.8664     0.1041     2.2168 C.ar    
  13 O13           -0.1367     5.8147    -1.0404 O.2     
  14 O14            3.4917    -2.1822    -0.4457 O.2     
  15 O15            5.0988    -0.2890    -0.7286 O.2     
  16 C16            4.3618     0.3927     3.4783 C.ar    
  17 C17            5.8181     0.9385     1.6448 C.ar    
  18 C18            6.2559     2.0555     2.3289 C.ar    
  19 C19            5.7472     2.3437     3.5832 C.ar    
  20 C20            4.8031     1.5110     4.1579 C.ar    
  21 Cl21           6.2998     3.7486     4.4403 Cl      
  22 H22           -0.6939     0.3109     0.1030 H       
  23 H23            3.8963     1.8822    -0.6182 H       
  24 H24            1.1700    -1.2643     0.2523 H       
  25 H25            4.3579    -1.8800     1.9840 H       
  26 H26            3.6247    -0.2567     3.9272 H       
  27 H27            6.2157     0.7138     0.6661 H       
  28 H28            6.9961     2.7044     1.8848 H       
  29 H29            4.4078     1.7383     5.1369 H       
@<TRIPOS>BOND
   1    1    2 ar
   2    1    3 ar
   3    1    7 1
   4    2    6 ar
   5    2   22 1
   6    3    4 ar
   7    3    9 1
   8    4    5 ar
   9    4   23 1
  10    5    6 ar
  11    5   10 1
  12    6   24 1
  13    7    8 1
  14    8    9 1
  15    8   13 2
  16   10   11 am
  17   10   14 2
  18   10   15 2
  19   11   12 1
  20   11   25 1
  21   12   16 ar
  22   12   17 ar
  23   16   20 ar
  24   16   26 1
  25   17   18 ar
  26   17   27 1
  27   18   19 ar
  28   18   28 1
  29   19   20 ar
  30   19   21 1
  31   20   29 1

#	End of record

