#	Name: ASD01912035
#	Creating user name:	WinNT
#	Creation time:	15. 06. 2019 19:58

#	Modifying user name:	WinNT
#	Modification time:	15. 06. 2019 19:58

#	Program:	/corina/corina34_cracker 3.40 0067  02.08.2006

@<TRIPOS>MOLECULE
ASD01912035
  41   45    0    0    0
SMALL
NO_CHARGES


@<TRIPOS>ATOM
   1 C1            -0.0160     1.3263     0.0093 C.ar    
   2 N2             0.0021    -0.0041     0.0073 N.ar    
   3 C3             1.1483    -0.6655    -0.0072 C.ar    
   4 N4             2.3208    -0.0443    -0.0202 N.ar    
   5 C5             2.3960     1.2737    -0.0193 C.ar    
   6 C6             1.2135     2.0229    -0.0043 C.ar    
   7 C7             1.2488     3.4544    -0.0032 C.1     
   8 N8             1.2768     4.5901    -0.0024 N.1     
   9 N9             1.1233    -2.0494    -0.0083 N.pl3   
  10 C10            2.3055    -2.7607    -0.0233 C.2     
  11 O11            2.3974    -4.1022    -0.0258 O.3     
  12 C12            3.7083    -4.4355    -0.0424 C.ar    
  13 C13            4.4234    -3.2285    -0.0501 C.ar    
  14 N14            3.5001    -2.2285    -0.0428 N.2     
  15 C15            4.3912    -5.6410    -0.0521 C.ar    
  16 C16            5.7712    -5.6499    -0.0692 C.ar    
  17 C17            6.4818    -4.4593    -0.0764 C.ar    
  18 C18            5.8188    -3.2518    -0.0678 C.ar    
  19 C19           -4.5433     2.1438    -1.8083 C.ar    
  20 C20           -4.3352     1.1533    -2.7191 C.ar    
  21 C21           -3.1351     0.4475    -2.7481 C.ar    
  22 C22           -2.1355     0.7286    -1.8655 C.ar    
  23 C23           -2.3146     1.7417    -0.9139 C.ar    
  24 C24           -1.2978     2.0618     0.0194 C.ar    
  25 C25           -1.5186     3.0714     0.9419 C.ar    
  26 C26           -2.7220     3.7669     0.9575 C.ar    
  27 C27           -3.7150     3.4776     0.0709 C.ar    
  28 C28           -3.5343     2.4607    -0.8829 C.ar    
  29 H29            3.3566     1.7672    -0.0297 H       
  30 H30            0.2747    -2.5191     0.0014 H       
  31 H31            3.8444    -6.5724    -0.0459 H       
  32 H32            6.3013    -6.5908    -0.0768 H       
  33 H33            7.5615    -4.4787    -0.0891 H       
  34 H34            6.3765    -2.3270    -0.0730 H       
  35 H35           -5.4772     2.6862    -1.8000 H       
  36 H36           -5.1122     0.9113    -3.4291 H       
  37 H37           -2.9946    -0.3340    -3.4802 H       
  38 H38           -1.2100     0.1731    -1.8990 H       
  39 H39           -0.7481     3.3204     1.6566 H       
  40 H40           -2.8725     4.5503     1.6855 H       
  41 H41           -4.6424     4.0303     0.1008 H       
@<TRIPOS>BOND
   1    1    2 ar
   2    1    6 ar
   3    1   24 1
   4    2    3 ar
   5    3    4 ar
   6    3    9 1
   7    4    5 ar
   8    5    6 ar
   9    5   29 1
  10    6    7 1
  11    7    8 3
  12    9   10 1
  13    9   30 1
  14   10   11 1
  15   10   14 2
  16   11   12 1
  17   12   13 ar
  18   12   15 ar
  19   13   14 1
  20   13   18 ar
  21   15   16 ar
  22   15   31 1
  23   16   17 ar
  24   16   32 1
  25   17   18 ar
  26   17   33 1
  27   18   34 1
  28   19   20 ar
  29   19   28 ar
  30   19   35 1
  31   20   21 ar
  32   20   36 1
  33   21   22 ar
  34   21   37 1
  35   22   23 ar
  36   22   38 1
  37   23   24 ar
  38   23   28 ar
  39   24   25 ar
  40   25   26 ar
  41   25   39 1
  42   26   27 ar
  43   26   40 1
  44   27   28 ar
  45   27   41 1

#	End of record

