#	Name: ASD01810012
#	Creating user name:	WinNT
#	Creation time:	15. 06. 2019 19:23

#	Modifying user name:	WinNT
#	Modification time:	15. 06. 2019 19:23

#	Program:	/corina/corina34_cracker 3.40 0067  02.08.2006

@<TRIPOS>MOLECULE
ASD01810012
  52   57    0    0    0
SMALL
NO_CHARGES


@<TRIPOS>ATOM
   1 N1            -0.0280     1.3571    -0.1493 N.am    
   2 C2            -0.0698     0.0416     0.1611 C.2     
   3 C3            -1.1638    -0.8041    -0.4439 C.3     
   4 C4            -2.5247    -0.1121    -0.4530 C.3     
   5 C5            -2.4001     1.3083    -0.9334 C.ar    
   6 C6            -1.1758     1.9281    -0.7152 C.ar    
   7 C7            -3.3913     2.0181    -1.5564 C.ar    
   8 C8            -3.1687     3.3447    -1.9369 C.ar    
   9 C9            -1.9649     3.9650    -1.6837 C.ar    
  10 C10           -0.9399     3.2542    -1.0528 C.ar    
  11 C11            0.9253     2.3233    -0.0303 C.ar    
  12 C12            0.4204     3.5316    -0.5853 C.ar    
  13 C13            1.1849     4.6917    -0.6125 C.ar    
  14 C14            2.4705     4.6160    -0.0633 C.ar    
  15 C15            2.9567     3.4270     0.4848 C.ar    
  16 C16            2.2099     2.2787     0.5153 C.ar    
  17 C17           -4.2931     4.0641    -2.6379 C.3     
  18 N18           -4.0912     5.5146    -2.5855 N.3     
  19 C19           -2.7524     5.8608    -3.0888 C.3     
  20 C20           -1.7171     5.4019    -2.0620 C.3     
  21 O21            0.7519    -0.4467     0.9070 O.2     
  22 C22            3.3296     5.8170    -0.0641 C.2     
  23 N23            2.8447     6.9927     0.3821 N.am    
  24 O24            4.4743     5.7453    -0.4672 O.2     
  25 C25            1.4390     7.1238     0.7971 C.3     
  26 C26            1.4030     7.7763     2.1838 C.3     
  27 O27            2.1722     8.9811     2.1571 O.3     
  28 C28            3.5591     8.7839     1.8719 C.3     
  29 C29            3.7069     8.1816     0.4746 C.3     
  30 H30           -0.8893    -1.0501    -1.4697 H       
  31 H31           -1.2458    -1.7300     0.1254 H       
  32 H32           -3.1992    -0.6562    -1.1142 H       
  33 H33           -2.9348    -0.1143     0.5569 H       
  34 H34           -4.3456     1.5528    -1.7544 H       
  35 H35            0.8051     5.6090    -1.0378 H       
  36 H36            3.9537     3.4127     0.8996 H       
  37 H37            2.6028     1.3687     0.9441 H       
  38 H38           -4.3302     3.7440    -3.6792 H       
  39 H39           -5.2367     3.8150    -2.1524 H       
  40 H40           -4.8088     5.9985    -3.1041 H       
  41 H41           -2.5757     5.3565    -4.0388 H       
  42 H42           -2.6797     6.9397    -3.2263 H       
  43 H43           -1.7885     6.0275    -1.1722 H       
  44 H44           -0.7185     5.4963    -2.4886 H       
  45 H45            0.9023     7.7488     0.0833 H       
  46 H46            0.9763     6.1380     0.8431 H       
  47 H47            0.3719     8.0084     2.4503 H       
  48 H48            1.8247     7.0914     2.9194 H       
  49 H49            4.0792     9.7409     1.9141 H       
  50 H50            3.9886     8.1026     2.6065 H       
  51 H51            4.7456     7.8977     0.3051 H       
  52 H52            3.3984     8.9111    -0.2742 H       
@<TRIPOS>BOND
   1    1    2 am
   2    1   11 1
   3    1    6 1
   4    2    3 1
   5    2   21 2
   6    3    4 1
   7    3   30 1
   8    3   31 1
   9    4    5 1
  10    4   32 1
  11    4   33 1
  12    5    6 ar
  13    5    7 ar
  14    6   10 ar
  15    7    8 ar
  16    7   34 1
  17    8    9 ar
  18    8   17 1
  19    9   10 ar
  20    9   20 1
  21   10   12 1
  22   11   12 ar
  23   11   16 ar
  24   12   13 ar
  25   13   14 ar
  26   13   35 1
  27   14   15 ar
  28   14   22 1
  29   15   16 ar
  30   15   36 1
  31   16   37 1
  32   17   18 1
  33   17   38 1
  34   17   39 1
  35   18   19 1
  36   18   40 1
  37   19   20 1
  38   19   41 1
  39   19   42 1
  40   20   43 1
  41   20   44 1
  42   22   23 am
  43   22   24 2
  44   23   25 1
  45   23   29 1
  46   25   26 1
  47   25   45 1
  48   25   46 1
  49   26   27 1
  50   26   47 1
  51   26   48 1
  52   27   28 1
  53   28   29 1
  54   28   49 1
  55   28   50 1
  56   29   51 1
  57   29   52 1

#	End of record

