#	Name: ASD04590411
#	Creating user name:	WinNT
#	Creation time:	15. 06. 2019 20:50

#	Modifying user name:	WinNT
#	Modification time:	15. 06. 2019 20:50

#	Program:	/corina/corina34_cracker 3.40 0067  02.08.2006

@<TRIPOS>MOLECULE
ASD04590411
  40   43    0    0    0
SMALL
NO_CHARGES


@<TRIPOS>ATOM
   1 C1            -0.0167     1.3832     0.0096 C.ar    
   2 C2             0.0021    -0.0041     0.0020 C.ar    
   3 C3             2.4020     0.0223    -0.0208 C.ar    
   4 C4             2.3769     1.4283    -0.0130 C.ar    
   5 C5             1.1624     2.0986     0.0022 C.ar    
   6 N6             3.7040    -0.3552    -0.0358 N.2     
   7 C7             4.4709     0.7083    -0.0376 C.2     
   8 N8             3.6969     1.8375    -0.0239 N.pl3   
   9 C9             5.9482     0.6906    -0.0528 C.2     
  10 C10            6.7657    -0.4631    -0.0681 C.2     
  11 C11            8.0578    -0.0540    -0.0788 C.2     
  12 N12            8.0646     1.3050    -0.0706 N.pl3   
  13 N13            6.7360     1.7480    -0.0602 N.2     
  14 N14            6.3187    -1.7944    -0.0716 N.am    
  15 C15            7.2107    -2.8047    -0.0868 C.2     
  16 O16            8.4028    -2.5633    -0.0975 O.2     
  17 C17            6.7416    -4.2020    -0.0905 C.ar    
  18 C18            1.1969    -0.6870    -0.0131 C.ar    
  19 C19            7.2156    -6.5661    -0.1095 C.ar    
  20 C20            5.8579    -6.8317    -0.0973 C.ar    
  21 C21            4.9396    -5.7903    -0.0874 C.ar    
  22 C22            5.3724    -4.4833    -0.0840 C.ar    
  23 C23            7.6666    -5.2558    -0.1063 C.ar    
  24 O24            8.9976    -4.9936    -0.1187 O.3     
  25 C25            9.8801    -6.1174    -0.1345 C.3     
  26 F26            5.4233    -8.1109    -0.1010 F       
  27 H27           -0.9614     1.9066     0.0170 H       
  28 H28           -0.9283    -0.5525     0.0084 H       
  29 H29            1.1403     3.1784     0.0079 H       
  30 H30            4.0155     2.7537    -0.0218 H       
  31 H31            8.9276    -0.6942    -0.0912 H       
  32 H32            8.8529     1.8702    -0.0750 H       
  33 H33            5.3681    -1.9869    -0.0631 H       
  34 H34            1.2037    -1.7669    -0.0186 H       
  35 H35            7.9246    -7.3807    -0.1168 H       
  36 H36            3.8815    -6.0064    -0.0782 H       
  37 H37            4.6548    -3.6763    -0.0760 H       
  38 H38           10.9126    -5.7685    -0.1433 H       
  39 H39            9.7097    -6.7257     0.7538 H       
  40 H40            9.6910    -6.7154    -1.0260 H       
@<TRIPOS>BOND
   1    1    2 ar
   2    1    5 ar
   3    1   27 1
   4    2   18 ar
   5    2   28 1
   6    3    4 ar
   7    3    6 1
   8    3   18 ar
   9    4    5 ar
  10    4    8 1
  11    5   29 1
  12    6    7 2
  13    7    8 1
  14    7    9 1
  15    8   30 1
  16    9   10 1
  17    9   13 2
  18   10   11 2
  19   10   14 1
  20   11   12 1
  21   11   31 1
  22   12   13 1
  23   12   32 1
  24   14   15 am
  25   14   33 1
  26   15   16 2
  27   15   17 1
  28   17   23 ar
  29   17   22 ar
  30   18   34 1
  31   19   20 ar
  32   19   23 ar
  33   19   35 1
  34   20   21 ar
  35   20   26 1
  36   21   22 ar
  37   21   36 1
  38   22   37 1
  39   23   24 1
  40   24   25 1
  41   25   38 1
  42   25   39 1
  43   25   40 1

#	End of record

