#	Name: ASD03330915
#	Creating user name:	WinNT
#	Creation time:	15. 06. 2019 20:38

#	Modifying user name:	WinNT
#	Modification time:	15. 06. 2019 20:38

#	Program:	/corina/corina34_cracker 3.40 0067  02.08.2006

@<TRIPOS>MOLECULE
ASD03330915
  65   69    0    0    0
SMALL
NO_CHARGES


@<TRIPOS>ATOM
   1 C1            -0.0211     1.5053     0.0920 C.2     
   2 C2            -0.0044     0.0021     0.1962 C.3     
   3 N3             1.1027     2.2788     0.1370 N.pl3   
   4 N4             1.3790    -0.4541    -0.0303 N.3     
   5 C5             2.3283     0.2910     0.8084 C.3     
   6 C6             2.4530     1.7326     0.2986 C.3     
   7 C7             0.7121     3.5740     0.0098 C.2     
   8 N8            -0.5971     3.6061    -0.1057 N.2     
   9 C9            -1.0769     2.3414    -0.0629 C.2     
  10 C10           -2.4925     1.9448    -0.1636 C.2     
  11 O11           -2.8001     0.7694    -0.1087 O.2     
  12 N12           -3.4464     2.8846    -0.3166 N.am    
  13 C13            1.6088     4.7497     0.0026 C.ar    
  14 C14            1.3057     5.8676     0.7846 C.ar    
  15 C15            2.1472     6.9635     0.7740 C.ar    
  16 C16            3.2888     6.9555    -0.0100 C.ar    
  17 C17            3.5943     5.8478    -0.7884 C.ar    
  18 C18            2.7636     4.7447    -0.7806 C.ar    
  19 F19            4.7096     5.8465    -1.5510 F       
  20 F20            4.1077     8.0300    -0.0175 F       
  21 F21            0.1919     5.8769     1.5491 F       
  22 C22            1.4999    -1.9006     0.1954 C.3     
  23 O23            3.1426    -2.8057    -1.5147 O.3     
  24 C24            2.8510    -2.3716    -0.2777 C.2     
  25 C25            3.9696    -2.4281     0.4673 C.2     
  26 C26            4.9946    -2.9253    -0.3700 C.2     
  27 C27            4.4411    -3.1428    -1.5765 C.2     
  28 C28           -4.8537     2.4903    -0.4167 C.3     
  29 C29           -5.4404     2.3330     0.9876 C.3     
  30 C30           -6.9102     1.9212     0.8831 C.3     
  31 O31           -6.5197     3.3404    -2.1415 O.3     
  32 C32           -5.6202     3.5499    -1.1655 C.2     
  33 N33           -5.5330     4.8371    -0.9848 N.2     
  34 N34           -6.3305     5.4373    -1.7968 N.2     
  35 C35           -6.9536     4.5534    -2.5232 C.2     
  36 C36           -7.9734     4.8390    -3.5953 C.3     
  37 C37           -4.6622     1.2572     1.7478 C.3     
  38 C38           -5.3355     3.6632     1.7361 C.3     
  39 H39           -0.3349    -0.3022     1.1893 H       
  40 H40           -0.6624    -0.4271    -0.5595 H       
  41 H41            1.9716     0.3006     1.8383 H       
  42 H42            3.3041    -0.1931     0.7686 H       
  43 H43            2.9700     1.7398    -0.6610 H       
  44 H44            3.0080     2.3314     1.0207 H       
  45 H45           -3.2010     3.8221    -0.3604 H       
  46 H46            1.9140     7.8280     1.3779 H       
  47 H47            3.0047     3.8815    -1.3832 H       
  48 H48            1.3933    -2.1125     1.2593 H       
  49 H49            0.7190    -2.4214    -0.3588 H       
  50 H50            4.0662    -2.1471     1.5056 H       
  51 H51            6.0245    -3.0971    -0.0939 H       
  52 H52            4.9540    -3.5239    -2.4472 H       
  53 H53           -4.9285     1.5426    -0.9500 H       
  54 H54           -6.9850     0.9735     0.3498 H       
  55 H55           -7.3282     1.8091     1.8835 H       
  56 H56           -7.4646     2.6876     0.3414 H       
  57 H57           -8.9694     4.8600    -3.1531 H       
  58 H58           -7.7586     5.8047    -4.0530 H       
  59 H59           -7.9297     4.0589    -4.3554 H       
  60 H60           -3.6151     1.5506     1.8223 H       
  61 H61           -5.0802     1.1451     2.7483 H       
  62 H62           -4.7370     0.3095     1.2146 H       
  63 H63           -5.8899     4.4297     1.1945 H       
  64 H64           -5.7534     3.5512     2.7366 H       
  65 H65           -4.2883     3.9566     1.8106 H       
@<TRIPOS>BOND
   1    1    2 1
   2    1    3 1
   3    1    9 2
   4    2    4 1
   5    2   39 1
   6    2   40 1
   7    3    6 1
   8    3    7 1
   9    4    5 1
  10    4   22 1
  11    5    6 1
  12    5   41 1
  13    5   42 1
  14    6   43 1
  15    6   44 1
  16    7    8 2
  17    7   13 1
  18    8    9 1
  19    9   10 1
  20   10   11 2
  21   10   12 am
  22   12   28 1
  23   12   45 1
  24   13   14 ar
  25   13   18 ar
  26   14   15 ar
  27   14   21 1
  28   15   16 ar
  29   15   46 1
  30   16   17 ar
  31   16   20 1
  32   17   18 ar
  33   17   19 1
  34   18   47 1
  35   22   24 1
  36   22   48 1
  37   22   49 1
  38   23   24 1
  39   23   27 1
  40   24   25 2
  41   25   26 1
  42   25   50 1
  43   26   27 2
  44   26   51 1
  45   27   52 1
  46   28   29 1
  47   28   32 1
  48   28   53 1
  49   29   30 1
  50   29   37 1
  51   29   38 1
  52   30   54 1
  53   30   55 1
  54   30   56 1
  55   31   32 1
  56   31   35 1
  57   32   33 2
  58   33   34 1
  59   34   35 2
  60   35   36 1
  61   36   57 1
  62   36   58 1
  63   36   59 1
  64   37   60 1
  65   37   61 1
  66   37   62 1
  67   38   63 1
  68   38   64 1
  69   38   65 1

#	End of record

