#	Name: ASD01918377
#	Creating user name:	WinNT
#	Creation time:	15. 06. 2019 20:11

#	Modifying user name:	WinNT
#	Modification time:	15. 06. 2019 20:11

#	Program:	/corina/corina34_cracker 3.40 0067  02.08.2006

@<TRIPOS>MOLECULE
ASD01918377
  42   44    0    0    0
SMALL
NO_CHARGES


@<TRIPOS>ATOM
   1 C1            -0.0187     1.5258     0.0104 C.3     
   2 C2             0.0021    -0.0041     0.0020 C.3     
   3 C3             0.7421    -0.5109     1.2415 C.3     
   4 C4            -0.0416    -0.1236     2.4973 C.3     
   5 C5             0.7582    -0.5198     3.7400 C.3     
   6 C6             0.8700    -2.0108     1.1719 C.2     
   7 N7             1.9856    -2.6967     1.1638 N.2     
   8 C8             1.6134    -3.9951     1.0927 C.2     
   9 N9             0.3058    -4.0205     1.0621 N.2     
  10 O10           -0.1341    -2.8913     1.1126 O.3     
  11 C11            2.5180    -5.1696     1.0558 C.ar    
  12 C12            1.9941    -6.4647     0.9757 C.ar    
  13 C13            2.8733    -7.5287     0.9438 C.ar    
  14 C14            4.2479    -7.2784     0.9924 C.ar    
  15 N15            4.7101    -6.0331     1.0684 N.ar    
  16 C16            3.9017    -4.9966     1.0948 C.ar    
  17 C17            5.1688    -8.3746     0.9605 C.1     
  18 C18            5.9237    -9.2733     0.9344 C.1     
  19 C19            6.8446   -10.3695     0.9024 C.ar    
  20 C20            6.3625   -11.6779     0.8174 C.ar    
  21 C21            7.2655   -12.7258     0.7876 C.ar    
  22 C22            8.6213   -12.4345     0.8436 C.ar    
  23 C23            9.0306   -11.1152     0.9271 C.ar    
  24 N24            8.1526   -10.1344     0.9485 N.ar    
  25 H25            1.0039     1.9031     0.0027 H       
  26 H26           -0.5459     1.8868    -0.8726 H       
  27 H27           -0.5289     1.8773     0.9072 H       
  28 H28           -1.0205    -0.3814     0.0098 H       
  29 H29            0.5123    -0.3556    -0.8948 H       
  30 H30            1.7350    -0.0630     1.2804 H       
  31 H31           -0.2110     0.9531     2.5022 H       
  32 H32           -1.0003    -0.6423     2.5016 H       
  33 H33            0.9276    -1.5965     3.7350 H       
  34 H34            1.7169    -0.0012     3.7356 H       
  35 H35            0.1999    -0.2439     4.6345 H       
  36 H36            0.9271    -6.6280     0.9399 H       
  37 H37            2.5038    -8.5417     0.8825 H       
  38 H38            4.3136    -3.9998     1.1518 H       
  39 H39            5.3003   -11.8687     0.7759 H       
  40 H40            6.9228   -13.7479     0.7225 H       
  41 H41            9.3507   -13.2307     0.8226 H       
  42 H42           10.0852   -10.8867     0.9707 H       
@<TRIPOS>BOND
   1    1    2 1
   2    1   25 1
   3    1   26 1
   4    1   27 1
   5    2    3 1
   6    2   28 1
   7    2   29 1
   8    3    4 1
   9    3    6 1
  10    3   30 1
  11    4    5 1
  12    4   31 1
  13    4   32 1
  14    5   33 1
  15    5   34 1
  16    5   35 1
  17    6   10 1
  18    6    7 2
  19    7    8 1
  20    8    9 2
  21    8   11 1
  22    9   10 1
  23   11   16 ar
  24   11   12 ar
  25   12   13 ar
  26   12   36 1
  27   13   14 ar
  28   13   37 1
  29   14   15 ar
  30   14   17 1
  31   15   16 ar
  32   16   38 1
  33   17   18 3
  34   18   19 1
  35   19   24 ar
  36   19   20 ar
  37   20   21 ar
  38   20   39 1
  39   21   22 ar
  40   21   40 1
  41   22   23 ar
  42   22   41 1
  43   23   24 ar
  44   23   42 1

#	End of record

