#	Name: ASD01028068
#	Creating user name:	WinNT
#	Creation time:	15. 06. 2019 18:56

#	Modifying user name:	WinNT
#	Modification time:	15. 06. 2019 18:56

#	Program:	/corina/corina34_cracker 3.40 0067  02.08.2006

@<TRIPOS>MOLECULE
ASD01028068
  75   80    0    0    0
SMALL
NO_CHARGES


@<TRIPOS>ATOM
   1 C1            -0.0187     1.5248     0.0104 C.3     
   2 C2             0.0021    -0.0041     0.0020 C.3     
   3 C3            -1.3967    -0.5368     0.3177 C.3     
   4 C4             2.0805     1.7983     1.3385 C.3     
   5 C5             1.4053     2.0822    -0.0002 C.3     
   6 N6             2.4984     3.0760     1.9743 N.3     
   7 N7             0.2528     1.8255     4.4004 N.pl3   
   8 C8             0.9758     2.8861     4.9808 C.ar    
   9 C9             1.5023     3.8350     4.1021 C.ar    
  10 C10            1.3103     3.6779     2.6205 C.3     
  11 C11            1.2091     2.9972     6.3417 C.ar    
  12 C12            1.8945     4.1027     6.8341 C.ar    
  13 C13            2.3657     5.0729     5.9599 C.ar    
  14 C14            2.1752     4.9336     4.6006 C.ar    
  15 O15           -1.3227    -1.6365     1.2256 O.3     
  16 C16           -1.6059    -1.3874     2.5307 C.ar    
  17 C17           -0.9772    -0.3366     3.1428 C.ar    
  18 C18           -1.2508    -0.0459     4.4820 C.ar    
  19 C19           -0.6272     1.0488     5.1467 C.ar    
  20 N20           -0.9383     1.2632     6.4060 N.ar    
  21 O21            0.9073     2.1767     7.3861 O.3     
  22 C22            1.2749     2.8495     8.5935 C.3     
  23 O23            1.9844     4.0235     8.1901 O.3     
  24 C24           -2.5158    -2.1828     3.2386 C.ar    
  25 C25           -2.7966    -1.9184     4.5634 C.ar    
  26 C26           -2.1690    -0.8433     5.2054 C.ar    
  27 N27           -2.4053    -0.5339     6.4900 N.ar    
  28 C28           -1.8009     0.4877     7.0498 C.ar    
  29 O29           -3.1285    -3.2226     2.6149 O.3     
  30 C30           -4.0457    -3.9955     3.3916 C.3     
  31 C31           -4.6315    -5.1130     2.5262 C.3     
  32 C32           -5.5178    -6.0165     3.3880 C.3     
  33 C33            3.4924     2.7222     3.0233 C.3     
  34 C34           -6.1489    -7.0957     2.5053 C.3     
  35 N35           -6.9470    -6.4607     1.4488 N.3     
  36 C36           -6.1086    -5.6252     0.5795 C.3     
  37 C37           -5.4763    -4.5022     1.4047 C.3     
  38 C38           -7.6792    -7.4654     0.6663 C.3     
  39 H39           -0.5497     1.8851    -0.8715 H       
  40 H40           -0.5325     1.8745     0.9062 H       
  41 H41            0.3110    -0.3587    -0.9823 H       
  42 H42            0.7043    -0.3672     0.7520 H       
  43 H43           -1.9982     0.2570     0.7592 H       
  44 H44           -1.8694    -0.8708    -0.6077 H       
  45 H45            1.3974     1.2827     2.0034 H       
  46 H46            2.9718     1.1937     1.1793 H       
  47 H47            1.9728     1.6124    -0.8045 H       
  48 H48            1.3703     3.1592    -0.1691 H       
  49 H49            0.3738     1.6291     3.4529 H       
  50 H50            1.1519     4.6653     2.1750 H       
  51 H51            0.4414     3.0604     2.4120 H       
  52 H52            2.8833     5.9387     6.3461 H       
  53 H53            2.5511     5.6855     3.9217 H       
  54 H54           -0.2718     0.2591     2.5835 H       
  55 H55            0.3839     3.1266     9.1571 H       
  56 H56            1.9176     2.2096     9.1980 H       
  57 H57           -3.4970    -2.5390     5.1031 H       
  58 H58           -2.0180     0.7066     8.0849 H       
  59 H59           -3.5233    -4.4315     4.2432 H       
  60 H60           -4.8504    -3.3531     3.7491 H       
  61 H61           -3.8220    -5.7016     2.0943 H       
  62 H62           -4.9128    -6.4878     4.1626 H       
  63 H63           -6.3035    -5.4201     3.8516 H       
  64 H64            4.3434     2.2202     2.5629 H       
  65 H65            3.8324     3.6296     3.5225 H       
  66 H66            3.0297     2.0576     3.7529 H       
  67 H67           -5.3629    -7.7003     2.0528 H       
  68 H68           -6.7918    -7.7320     3.1133 H       
  69 H69           -5.3228    -6.2368     0.1361 H       
  70 H70           -6.7224    -5.1936    -0.2111 H       
  71 H71           -6.2615    -3.8820     1.8372 H       
  72 H72           -4.8418    -3.8916     0.7624 H       
  73 H73           -8.3481    -8.0210     1.3235 H       
  74 H74           -8.2619    -6.9681    -0.1091 H       
  75 H75           -6.9708    -8.1527     0.2038 H       
@<TRIPOS>BOND
   1    1    2 1
   2    1    5 1
   3    1   39 1
   4    1   40 1
   5    2    3 1
   6    2   41 1
   7    2   42 1
   8    3   15 1
   9    3   43 1
  10    3   44 1
  11    4    5 1
  12    4    6 1
  13    4   45 1
  14    4   46 1
  15    5   47 1
  16    5   48 1
  17    6   33 1
  18    6   10 1
  19    7    8 1
  20    7   19 1
  21    7   49 1
  22    8    9 ar
  23    8   11 ar
  24    9   10 1
  25    9   14 ar
  26   10   50 1
  27   10   51 1
  28   11   12 ar
  29   11   21 1
  30   12   13 ar
  31   12   23 1
  32   13   14 ar
  33   13   52 1
  34   14   53 1
  35   15   16 1
  36   16   17 ar
  37   16   24 ar
  38   17   18 ar
  39   17   54 1
  40   18   19 ar
  41   18   26 ar
  42   19   20 ar
  43   20   28 ar
  44   21   22 1
  45   22   23 1
  46   22   55 1
  47   22   56 1
  48   24   25 ar
  49   24   29 1
  50   25   26 ar
  51   25   57 1
  52   26   27 ar
  53   27   28 ar
  54   28   58 1
  55   29   30 1
  56   30   31 1
  57   30   59 1
  58   30   60 1
  59   31   32 1
  60   31   37 1
  61   31   61 1
  62   32   34 1
  63   32   62 1
  64   32   63 1
  65   33   64 1
  66   33   65 1
  67   33   66 1
  68   34   35 1
  69   34   67 1
  70   34   68 1
  71   35   36 1
  72   35   38 1
  73   36   37 1
  74   36   69 1
  75   36   70 1
  76   37   71 1
  77   37   72 1
  78   38   73 1
  79   38   74 1
  80   38   75 1

#	End of record

