#	Name: ASD01840502
#	Creating user name:	WinNT
#	Creation time:	15. 06. 2019 19:37

#	Modifying user name:	WinNT
#	Modification time:	15. 06. 2019 19:37

#	Program:	/corina/corina34_cracker 3.40 0067  02.08.2006

@<TRIPOS>MOLECULE
ASD01840502
  45   47    0    0    0
SMALL
NO_CHARGES


@<TRIPOS>ATOM
   1 Cl1            0.0000     0.0000     0.0000 Cl      
   2 H2             0.0000     1.3700     0.0000 H       
   3 C3             6.4029    12.5978     5.8947 C.3     
   4 O4             6.3284    11.1895     6.1251 O.3     
   5 C5             6.9893    10.7057     7.2102 C.ar    
   6 C6             7.6896    11.5689     8.0385 C.ar    
   7 C7             8.3606    11.0750     9.1414 C.ar    
   8 C8             8.3343     9.7214     9.4199 C.ar    
   9 C9             9.0670     9.1868    10.6233 C.3     
  10 N10            8.1719     9.1939    11.7830 N.pl3   
  11 C11            8.6284     8.7419    13.0168 C.ar    
  12 N12            9.8699     8.3133    13.1374 N.ar    
  13 C13           10.3486     7.8748    14.2900 C.ar    
  14 C14            9.5769     7.8451    15.4113 C.ar    
  15 C15            8.2371     8.2915    15.3467 C.ar    
  16 C16            7.7631     8.7514    14.1271 C.ar    
  17 S17            6.0898     9.2634    14.2620 S.3     
  18 C18            6.0103     8.8698    15.9714 C.ar    
  19 N19            5.0000     8.9863    16.8380 N.ar    
  20 N20            5.1099     8.6487    18.0680 N.ar    
  21 C21            6.2280     8.1603    18.5739 C.ar    
  22 C22            6.2925     7.7812    20.0310 C.3     
  23 C23            7.3369     7.9965    17.7692 C.ar    
  24 C24            8.6230     7.4408    18.3243 C.3     
  25 C25            7.2272     8.3527    16.4097 C.ar    
  26 C26            7.6365     8.8567     8.5964 C.ar    
  27 C27            6.9594     9.3459     7.4942 C.ar    
  28 F28            6.2737     8.5022     6.6922 F       
  29 H29            7.4443    12.8889     5.7571 H       
  30 H30            5.8339    12.8503     5.0000 H       
  31 H31            5.9875    13.1286     6.7513 H       
  32 H32            7.7113    12.6267     7.8219 H       
  33 H33            8.9064    11.7477     9.7864 H       
  34 H34            9.3963     8.1669    10.4248 H       
  35 H35            9.9338     9.8148    10.8296 H       
  36 H36            7.2608     9.5137    11.6905 H       
  37 H37           11.3718     7.5331    14.3425 H       
  38 H38            9.9852     7.4830    16.3432 H       
  39 H39            5.9982     6.7383    20.1484 H       
  40 H40            7.3106     7.9148    20.3964 H       
  41 H41            5.6152     8.4164    20.6020 H       
  42 H42            8.6714     6.3700    18.1266 H       
  43 H43            9.4686     7.9369    17.8480 H       
  44 H44            8.6591     7.6136    19.3999 H       
  45 H45            7.6172     7.7995     8.8163 H       
@<TRIPOS>BOND
   1    1    2 1
   2    3    4 1
   3    3   29 1
   4    3   30 1
   5    3   31 1
   6    4    5 1
   7    5   27 ar
   8    5    6 ar
   9    6    7 ar
  10    6   32 1
  11    7    8 ar
  12    7   33 1
  13    8    9 1
  14    8   26 ar
  15    9   10 1
  16    9   34 1
  17    9   35 1
  18   10   11 1
  19   10   36 1
  20   11   16 ar
  21   11   12 ar
  22   12   13 ar
  23   13   14 ar
  24   13   37 1
  25   14   15 ar
  26   14   38 1
  27   15   25 1
  28   15   16 ar
  29   16   17 1
  30   17   18 1
  31   18   25 ar
  32   18   19 ar
  33   19   20 ar
  34   20   21 ar
  35   21   22 1
  36   21   23 ar
  37   22   39 1
  38   22   40 1
  39   22   41 1
  40   23   24 1
  41   23   25 ar
  42   24   42 1
  43   24   43 1
  44   24   44 1
  45   26   27 ar
  46   26   45 1
  47   27   28 1

#	End of record

