#	Name: ASD01910659
#	Creating user name:	WinNT
#	Creation time:	15. 06. 2019 19:56

#	Modifying user name:	WinNT
#	Modification time:	15. 06. 2019 19:56

#	Program:	/corina/corina34_cracker 3.40 0067  02.08.2006

@<TRIPOS>MOLECULE
ASD01910659
  36   38    0    0    0
SMALL
NO_CHARGES


@<TRIPOS>ATOM
   1 C1            -0.0168     1.3851     0.0097 C.ar    
   2 C2             0.0021    -0.0041     0.0020 C.ar    
   3 C3             1.2120    -0.6869    -0.0128 C.ar    
   4 C4             2.3995     0.0114    -0.0200 C.ar    
   5 C5             2.3858     1.4097    -0.0128 C.ar    
   6 C6             1.1654     2.0923     0.0022 C.ar    
   7 C7             3.6174     2.1401    -0.0197 C.1     
   8 C8             4.6272     2.7390    -0.0254 C.1     
   9 C9             5.8588     3.4695    -0.0324 C.ar    
  10 C10            5.8414     4.8696    -0.0251 C.ar    
  11 C11            7.0159     5.5625    -0.0311 C.ar    
  12 C12            8.2349     4.8739    -0.0438 C.ar    
  13 C13            8.2548     3.4787    -0.0516 C.ar    
  14 C14            7.0787     2.7829    -0.0405 C.ar    
  15 C15            7.0236     7.0684    -0.0247 C.3     
  16 C16            8.2217     7.5785     0.7727 C.3     
  17 N17            9.4590     6.9493     0.3192 N.am    
  18 C18            9.4898     5.6525    -0.0473 C.2     
  19 O19           10.5374     5.1305    -0.3764 O.2     
  20 O20           -1.1662    -0.6969     0.0095 O.3     
  21 C21           -1.0747    -2.1230     0.0010 C.3     
  22 H22           -0.9598     1.9114     0.0170 H       
  23 H23            1.2215    -1.7668    -0.0183 H       
  24 H24            3.3395    -0.5203    -0.0308 H       
  25 H25            1.1498     3.1722     0.0074 H       
  26 H26            4.9003     5.3993    -0.0152 H       
  27 H27            9.1967     2.9504    -0.0622 H       
  28 H28            7.0903     1.7029    -0.0461 H       
  29 H29            7.0882     7.4345    -1.0494 H       
  30 H30            6.1032     7.4332     0.4314 H       
  31 H31            8.3020     8.6582     0.6465 H       
  32 H32            8.0713     7.3527     1.8284 H       
  33 H33           10.2737     7.4744     0.2806 H       
  34 H34           -0.5473    -2.4479    -0.8959 H       
  35 H35           -0.5302    -2.4574     0.8840 H       
  36 H36           -2.0770    -2.5514     0.0083 H       
@<TRIPOS>BOND
   1    1    2 ar
   2    1    6 ar
   3    1   22 1
   4    2    3 ar
   5    2   20 1
   6    3    4 ar
   7    3   23 1
   8    4    5 ar
   9    4   24 1
  10    5    6 ar
  11    5    7 1
  12    6   25 1
  13    7    8 3
  14    8    9 1
  15    9   10 ar
  16    9   14 ar
  17   10   11 ar
  18   10   26 1
  19   11   12 ar
  20   11   15 1
  21   12   13 ar
  22   12   18 1
  23   13   14 ar
  24   13   27 1
  25   14   28 1
  26   15   16 1
  27   15   29 1
  28   15   30 1
  29   16   17 1
  30   16   31 1
  31   16   32 1
  32   17   18 am
  33   17   33 1
  34   18   19 2
  35   20   21 1
  36   21   34 1
  37   21   35 1
  38   21   36 1

#	End of record

