#	Name: ASD01410818
#	Creating user name:	WinNT
#	Creation time:	15. 06. 2019 19:18

#	Modifying user name:	WinNT
#	Modification time:	15. 06. 2019 19:18

#	Program:	/corina/corina34_cracker 3.40 0067  02.08.2006

@<TRIPOS>MOLECULE
ASD01410818
  61   61    0    0    0
SMALL
NO_CHARGES


@<TRIPOS>ATOM
   1 C1            -0.0931     1.5901     0.0328 C.3     
   2 C2            -0.0169     0.0450    -0.0484 C.3     
   3 N3             0.2778    -0.3912     1.3287 N.am    
   4 C4            -0.1832     0.6478     2.2611 C.3     
   5 C5            -0.7698     1.7965     1.4137 C.3     
   6 C6             1.0896    -0.3773    -0.9804 C.2     
   7 C7             0.8300    -1.1762    -1.9856 C.2     
   8 C8            -1.2467     0.0862     3.1693 C.2     
   9 O9            -1.8297    -0.9266     2.8626 O.2     
  10 O10           -1.5461     0.7112     4.3189 O.3     
  11 C11           -2.5807     0.1136     5.1440 C.3     
  12 O12            1.1810    -1.7893     2.9637 O.3     
  13 C13            1.8181    -3.0590     3.2641 C.3     
  14 C14            3.1383    -3.1611     2.4977 C.3     
  15 C15            2.0923    -3.1492     4.7666 C.3     
  16 C16            0.8949    -4.2047     2.8445 C.3     
  17 C17            0.8708    -1.5507     1.6755 C.2     
  18 O18            1.1255    -2.3808     0.8254 O.2     
  19 Si19           1.2694     3.6535    -0.6628 Si      
  20 C20            3.0213     4.2862    -0.6259 C.3     
  21 C21            0.1702     4.8127     0.2958 C.3     
  22 C22            0.6811     3.5572    -2.4278 C.3     
  23 C23            3.5045     4.3653     0.8237 C.3     
  24 C24            3.9240     3.3343    -1.4131 C.3     
  25 C25            3.0741     5.6786    -1.2578 C.3     
  26 O26            1.2131     2.1692     0.0108 O.3     
  27 H27           -0.7106     1.9935    -0.7697 H       
  28 H28           -0.9707    -0.3650    -0.3803 H       
  29 H29            0.6561     1.0144     2.8521 H       
  30 H30           -0.4984     2.7643     1.8353 H       
  31 H31           -1.8524     1.7006     1.3308 H       
  32 H32            2.0964    -0.0213    -0.8195 H       
  33 H33            1.6043    -1.4144    -2.6999 H       
  34 H34           -0.1581    -1.5967    -2.1000 H       
  35 H35           -2.7238     0.7166     6.0406 H       
  36 H36           -3.5138     0.0707     4.5822 H       
  37 H37           -2.2812    -0.8951     5.4284 H       
  38 H38            3.7960    -2.3449     2.7966 H       
  39 H39            3.6166    -4.1142     2.7232 H       
  40 H40            2.9430    -3.0969     1.4273 H       
  41 H41            1.1517    -3.0765     5.3126 H       
  42 H42            2.5706    -4.1023     4.9921 H       
  43 H43            2.7500    -2.3329     5.0655 H       
  44 H44            0.6995    -4.1405     1.7741 H       
  45 H45            1.3732    -5.1579     3.0700 H       
  46 H46           -0.0457    -4.1320     3.3905 H       
  47 H47            0.2079     5.8046    -0.1544 H       
  48 H48           -0.8548     4.4425     0.2742 H       
  49 H49            0.5145     4.8690     1.3285 H       
  50 H50            1.3242     2.8790    -2.9887 H       
  51 H51           -0.3439     3.1871    -2.4494 H       
  52 H52            0.7187     4.5492    -2.8780 H       
  53 H53            3.4669     3.3733     1.2739 H       
  54 H54            4.5295     4.7355     0.8453 H       
  55 H55            2.8614     5.0435     1.3845 H       
  56 H56            3.5798     3.2779    -2.4458 H       
  57 H57            4.9490     3.7044    -1.3915 H       
  58 H58            3.8864     2.3423    -0.9630 H       
  59 H59            2.4310     6.3568    -0.6969 H       
  60 H60            4.0991     6.0488    -1.2362 H       
  61 H61            2.7299     5.6223    -2.2905 H       
@<TRIPOS>BOND
   1    1    2 1
   2    1   26 1
   3    1    5 1
   4    1   27 1
   5    2    3 1
   6    2    6 1
   7    2   28 1
   8    3    4 1
   9    3   17 am
  10    4    5 1
  11    4    8 1
  12    4   29 1
  13    5   30 1
  14    5   31 1
  15    6    7 2
  16    6   32 1
  17    7   33 1
  18    7   34 1
  19    8    9 2
  20    8   10 1
  21   10   11 1
  22   11   35 1
  23   11   36 1
  24   11   37 1
  25   12   13 1
  26   12   17 1
  27   13   14 1
  28   13   15 1
  29   13   16 1
  30   14   38 1
  31   14   39 1
  32   14   40 1
  33   15   41 1
  34   15   42 1
  35   15   43 1
  36   16   44 1
  37   16   45 1
  38   16   46 1
  39   17   18 2
  40   19   20 1
  41   19   21 1
  42   19   22 1
  43   19   26 1
  44   20   23 1
  45   20   24 1
  46   20   25 1
  47   21   47 1
  48   21   48 1
  49   21   49 1
  50   22   50 1
  51   22   51 1
  52   22   52 1
  53   23   53 1
  54   23   54 1
  55   23   55 1
  56   24   56 1
  57   24   57 1
  58   24   58 1
  59   25   59 1
  60   25   60 1
  61   25   61 1

#	End of record

