#	Name: ASD01913854
#	Creating user name:	WinNT
#	Creation time:	15. 06. 2019 20:02

#	Modifying user name:	WinNT
#	Modification time:	15. 06. 2019 20:02

#	Program:	/corina/corina34_cracker 3.40 0067  02.08.2006

@<TRIPOS>MOLECULE
ASD01913854
  41   43    0    0    0
SMALL
NO_CHARGES


@<TRIPOS>ATOM
   1 C1            -0.0195     1.4278    -0.0131 C.ar    
   2 C2             0.0005    -0.0040    -0.0141 C.1     
   3 C3             0.0170    -1.1779    -0.0150 C.1     
   4 C4             0.0370    -2.6098    -0.0160 C.ar    
   5 C5            -1.1524    -3.3387     0.1331 C.ar    
   6 C6             0.1560    -5.3344    -0.0290 C.ar    
   7 N7             1.2610    -4.6185    -0.1734 N.ar    
   8 C8             1.2401    -3.3018    -0.1713 C.ar    
   9 C9            -1.0818    -4.7173     0.1252 C.ar    
  10 C10            1.1698     2.1459    -0.1622 C.ar    
  11 C11            1.1453     3.5250    -0.1605 C.ar    
  12 C12           -1.2418     3.4928     0.1315 C.ar    
  13 C13           -1.2295     2.1124     0.1313 C.ar    
  14 C14           -0.0553     4.1996    -0.0114 C.ar    
  15 N15            0.2331    -6.7252    -0.0385 N.am    
  16 C16            0.1551    -7.3611    -1.2124 C.2     
  17 O17            0.1742    -8.6984    -1.3238 O.3     
  18 C18            0.6539    -9.4538    -0.1773 C.3     
  19 C19           -0.0192    -8.8895     1.0813 C.3     
  20 C20            0.4014    -7.4231     1.2335 C.3     
  21 C21            0.2874   -10.9302    -0.3414 C.3     
  22 C22            2.1724    -9.3074    -0.0609 C.3     
  23 O23            0.0623    -6.6970    -2.2256 O.2     
  24 F24           -0.0726     5.5505    -0.0106 F       
  25 F25           -2.4100     4.1569     0.2708 F       
  26 H26           -2.0997    -2.8338     0.2515 H       
  27 H27            2.1619    -2.7520    -0.2910 H       
  28 H28           -1.9772    -5.3105     0.2378 H       
  29 H29            2.1070     1.6219    -0.2782 H       
  30 H30            2.0645     4.0802    -0.2753 H       
  31 H31           -2.1525     1.5627     0.2417 H       
  32 H32           -1.1024    -8.9560     0.9796 H       
  33 H33            0.3034    -9.4554     1.9553 H       
  34 H34            1.4452    -7.3762     1.5439 H       
  35 H35           -0.2214    -6.9444     1.9892 H       
  36 H36            0.7481   -11.3202    -1.2490 H       
  37 H37            0.6488   -11.4921     0.5198 H       
  38 H38           -0.7957   -11.0301    -0.4119 H       
  39 H39            2.4272    -8.2554     0.0678 H       
  40 H40            2.5272    -9.8750     0.7994 H       
  41 H41            2.6446    -9.6875    -0.9668 H       
@<TRIPOS>BOND
   1    1    2 1
   2    1   10 ar
   3    1   13 ar
   4    2    3 3
   5    3    4 1
   6    4    5 ar
   7    4    8 ar
   8    5    9 ar
   9    5   26 1
  10    6    7 ar
  11    6   15 1
  12    6    9 ar
  13    7    8 ar
  14    8   27 1
  15    9   28 1
  16   10   11 ar
  17   10   29 1
  18   11   14 ar
  19   11   30 1
  20   12   13 ar
  21   12   25 1
  22   12   14 ar
  23   13   31 1
  24   14   24 1
  25   15   16 am
  26   15   20 1
  27   16   17 1
  28   16   23 2
  29   17   18 1
  30   18   19 1
  31   18   21 1
  32   18   22 1
  33   19   20 1
  34   19   32 1
  35   19   33 1
  36   20   34 1
  37   20   35 1
  38   21   36 1
  39   21   37 1
  40   21   38 1
  41   22   39 1
  42   22   40 1
  43   22   41 1

#	End of record

