#	Name: ASD03331587
#	Creating user name:	WinNT
#	Creation time:	15. 06. 2019 20:39

#	Modifying user name:	WinNT
#	Modification time:	15. 06. 2019 20:39

#	Program:	/corina/corina34_cracker 3.40 0067  02.08.2006

@<TRIPOS>MOLECULE
ASD03331587
  59   61    0    0    0
SMALL
NO_CHARGES


@<TRIPOS>ATOM
   1 C1             0.0039     0.8339     1.4900 C.ar    
   2 C2             0.0049    -0.5786     1.0508 C.2     
   3 N3            -1.0490    -1.4413     1.1417 N.pl3   
   4 C4            -0.6341    -2.6411     0.6545 C.2     
   5 C5             0.6560    -2.4861     0.2487 C.2     
   6 N6             1.0172    -1.2094     0.5037 N.2     
   7 C7             1.5047    -3.5233    -0.3640 C.2     
   8 O8             1.0618    -4.6410    -0.5479 O.2     
   9 N9             2.7716    -3.2334    -0.7207 N.am    
  10 C10            3.6154    -4.2645    -1.3298 C.3     
  11 C11            5.0654    -3.9403    -1.0784 C.2     
  12 C12           -2.3912    -1.1381     1.6479 C.3     
  13 C13           -3.0255    -2.4202     2.1942 C.3     
  14 C14           -3.7037    -3.1857     1.0600 C.3     
  15 O15           -2.7556    -3.5819     0.0762 O.3     
  16 C16           -1.4630    -3.8977     0.6049 C.3     
  17 C17            3.3569    -4.3101    -2.8372 C.3     
  18 C18            3.6283    -2.9317    -3.4431 C.3     
  19 C19            4.2837    -5.3424    -3.4825 C.3     
  20 C20            1.9003    -4.7020    -3.0932 C.3     
  21 C21            1.2099     1.4921     1.7325 C.ar    
  22 N22            6.0025    -4.9007    -1.2049 N.am    
  23 O23            5.3892    -2.8150    -0.7622 O.2     
  24 C24            7.3976    -4.6124    -0.8634 C.3     
  25 C25            1.2031     2.8112     2.1425 C.ar    
  26 C26           -0.0007     3.4800     2.3133 C.ar    
  27 C27           -1.2000     2.8290     2.0737 C.ar    
  28 C28           -1.2030     1.5139     1.6576 C.ar    
  29 F29           -0.0033     4.7699     2.7148 F       
  30 F30            2.3697     3.4506     2.3779 F       
  31 C31            8.2483    -5.8628    -1.0950 C.3     
  32 H32            3.1248    -2.3419    -0.5741 H       
  33 H33            3.3784    -5.2338    -0.8911 H       
  34 H34           -2.3211    -0.3983     2.4453 H       
  35 H35           -3.0055    -0.7445     0.8381 H       
  36 H36           -2.2523    -3.0449     2.6413 H       
  37 H37           -3.7659    -2.1638     2.9519 H       
  38 H38           -4.1898    -4.0725     1.4668 H       
  39 H39           -4.4555    -2.5471     0.5963 H       
  40 H40           -0.9754    -4.6313    -0.0372 H       
  41 H41           -1.5695    -4.3044     1.6106 H       
  42 H42            4.6661    -2.6525    -3.2607 H       
  43 H43            3.4442    -2.9642    -4.5169 H       
  44 H44            2.9681    -2.1963    -2.9833 H       
  45 H45            4.0932    -6.3236    -3.0479 H       
  46 H46            4.0967    -5.3778    -4.5558 H       
  47 H47            5.3215    -5.0610    -3.3036 H       
  48 H48            1.2400    -3.9666    -2.6335 H       
  49 H49            1.7162    -4.7345    -4.1671 H       
  50 H50            1.7069    -5.6840    -2.6615 H       
  51 H51            2.1467     0.9713     1.6002 H       
  52 H52            5.7531    -5.7828    -1.5221 H       
  53 H53            7.7654    -3.8013    -1.4919 H       
  54 H54            7.4619    -4.3181     0.1842 H       
  55 H55           -2.1342     3.3537     2.2084 H       
  56 H56           -2.1389     1.0081     1.4713 H       
  57 H57            8.1840    -6.1571    -2.1425 H       
  58 H58            9.2863    -5.6483    -0.8409 H       
  59 H59            7.8805    -6.6739    -0.4665 H       
@<TRIPOS>BOND
   1    1    2 1
   2    1   21 ar
   3    1   28 ar
   4    2    3 1
   5    2    6 2
   6    3    4 1
   7    3   12 1
   8    4    5 2
   9    4   16 1
  10    5    6 1
  11    5    7 1
  12    7    8 2
  13    7    9 am
  14    9   10 1
  15    9   32 1
  16   10   11 1
  17   10   17 1
  18   10   33 1
  19   11   22 am
  20   11   23 2
  21   12   13 1
  22   12   34 1
  23   12   35 1
  24   13   14 1
  25   13   36 1
  26   13   37 1
  27   14   15 1
  28   14   38 1
  29   14   39 1
  30   15   16 1
  31   16   40 1
  32   16   41 1
  33   17   18 1
  34   17   19 1
  35   17   20 1
  36   18   42 1
  37   18   43 1
  38   18   44 1
  39   19   45 1
  40   19   46 1
  41   19   47 1
  42   20   48 1
  43   20   49 1
  44   20   50 1
  45   21   25 ar
  46   21   51 1
  47   22   24 1
  48   22   52 1
  49   24   31 1
  50   24   53 1
  51   24   54 1
  52   25   26 ar
  53   25   30 1
  54   26   27 ar
  55   26   29 1
  56   27   28 ar
  57   27   55 1
  58   28   56 1
  59   31   57 1
  60   31   58 1
  61   31   59 1

#	End of record

