#	Name: ASD04560210
#	Creating user name:	WinNT
#	Creation time:	15. 06. 2019 20:49

#	Modifying user name:	WinNT
#	Modification time:	15. 06. 2019 20:49

#	Program:	/corina/corina34_cracker 3.40 0067  02.08.2006

@<TRIPOS>MOLECULE
ASD04560210
  33   35    0    0    0
SMALL
NO_CHARGES


@<TRIPOS>ATOM
   1 C1            -0.0372     1.5424     0.9556 C.ar    
   2 C2            -0.0293     0.1865     1.1979 C.ar    
   3 C3             1.1743    -0.5001     1.2568 C.ar    
   4 C4             2.3641     0.1590     1.0759 C.ar    
   5 C5             1.1606     2.2275     0.7692 C.ar    
   6 S6             1.4865     3.9288     0.4468 S.3     
   7 C7             2.3812     1.5475     0.8268 C.ar    
   8 N8             3.4409     2.3557     0.6266 N.2     
   9 C9             3.2142     3.6054     0.4125 C.2     
  10 N10            4.1929     4.5595     0.1891 N.am    
  11 C11            5.4927     4.2031     0.1836 C.2     
  12 N12            6.4451     5.1317    -0.0338 N.am    
  13 O13            5.8060     3.0441     0.3748 O.2     
  14 C14            7.7974     4.7817     0.0569 C.ar    
  15 C15            8.7172     5.6874     0.5689 C.ar    
  16 C16            8.2203     3.5266    -0.3595 C.ar    
  17 C17            9.5553     3.1830    -0.2693 C.ar    
  18 C18           10.4712     4.0882     0.2361 C.ar    
  19 C19           10.0517     5.3393     0.6573 C.ar    
  20 C20           -1.3281    -0.5506     1.3995 C.3     
  21 Cl21          12.1480     3.6530     0.3487 Cl      
  22 F22           -1.7996    -1.0109     0.1654 F       
  23 F23           -1.1192    -1.6385     2.2540 F       
  24 F24           -2.2714     0.3131     1.9664 F       
  25 Cl25          11.2029     6.4706     1.2966 Cl      
  26 H26           -0.9754     2.0749     0.9056 H       
  27 H27            1.1750    -1.5632     1.4470 H       
  28 H28            3.2936    -0.3888     1.1248 H       
  29 H29            3.9428     5.4842     0.0366 H       
  30 H30            6.1934     6.0424    -0.2532 H       
  31 H31            8.3901     6.6628     0.8973 H       
  32 H32            7.5058     2.8190    -0.7536 H       
  33 H33            9.8842     2.2067    -0.5932 H       
@<TRIPOS>BOND
   1    1    2 ar
   2    1    5 ar
   3    1   26 1
   4    2    3 ar
   5    2   20 1
   6    3    4 ar
   7    3   27 1
   8    4    7 ar
   9    4   28 1
  10    5    7 ar
  11    5    6 1
  12    6    9 1
  13    7    8 1
  14    8    9 2
  15    9   10 1
  16   10   11 am
  17   10   29 1
  18   11   12 am
  19   11   13 2
  20   12   14 1
  21   12   30 1
  22   14   16 ar
  23   14   15 ar
  24   15   19 ar
  25   15   31 1
  26   16   17 ar
  27   16   32 1
  28   17   18 ar
  29   17   33 1
  30   18   19 ar
  31   18   21 1
  32   19   25 1
  33   20   22 1
  34   20   23 1
  35   20   24 1

#	End of record

