#	Name: ASD01810035
#	Creating user name:	WinNT
#	Creation time:	15. 06. 2019 19:23

#	Modifying user name:	WinNT
#	Modification time:	15. 06. 2019 19:23

#	Program:	/corina/corina34_cracker 3.40 0067  02.08.2006

@<TRIPOS>MOLECULE
ASD01810035
  43   47    0    0    0
SMALL
NO_CHARGES


@<TRIPOS>ATOM
   1 N1            -0.0163     1.3479     0.0095 N.am    
   2 C2             0.0021    -0.0041     0.0020 C.2     
   3 C3            -1.2675    -0.7370    -0.3573 C.3     
   4 C4            -2.5158    -0.1238     0.2725 C.3     
   5 C5            -2.5120     1.3731     0.1211 C.ar    
   6 C6            -1.2659     1.9812     0.0315 C.ar    
   7 C7            -3.6301     2.1616     0.0690 C.ar    
   8 C8            -3.5023     3.5484    -0.0467 C.ar    
   9 C9            -2.2639     4.1495    -0.0972 C.ar    
  10 C10           -1.1112     3.3587    -0.0514 C.ar    
  11 C11            0.9563     2.3067     0.0053 C.ar    
  12 C12            0.3360     3.5834    -0.0421 C.ar    
  13 C13            1.0889     4.7551    -0.0679 C.ar    
  14 C14            2.4675     4.6208    -0.0391 C.ar    
  15 C15            3.0747     3.3800     0.0134 C.ar    
  16 C16            2.3454     2.2031     0.0385 C.ar    
  17 C17           -4.7715     4.3606    -0.1196 C.3     
  18 C18           -4.4761     5.8270     0.1924 C.3     
  19 N19           -3.3524     6.2664    -0.6499 N.3     
  20 C20           -2.1061     5.6435    -0.1945 C.3     
  21 O21            1.0140    -0.6129     0.2770 O.2     
  22 C22           -3.7582    -0.6958    -0.4133 C.3     
  23 C23           -2.5551    -0.4790     1.7602 C.3     
  24 H24           -1.3819    -0.7282    -1.4413 H       
  25 H25           -1.1802    -1.7716    -0.0255 H       
  26 H26           -4.6109     1.7118     0.1169 H       
  27 H27            0.6183     5.7263    -0.1090 H       
  28 H28            3.0834     5.5078    -0.0585 H       
  29 H29            4.1532     3.3268     0.0370 H       
  30 H30            2.8347     1.2412     0.0796 H       
  31 H31           -5.1937     4.2822    -1.1214 H       
  32 H32           -5.4895     3.9748     0.6041 H       
  33 H33           -5.3559     6.4323    -0.0259 H       
  34 H34           -4.2081     5.9310     1.2438 H       
  35 H35           -3.5263     6.0588    -1.6219 H       
  36 H36           -1.8428     6.0415     0.7855 H       
  37 H37           -1.3094     5.8753    -0.9015 H       
  38 H38           -3.7780    -1.7781    -0.2854 H       
  39 H39           -4.6523    -0.2607     0.0332 H       
  40 H40           -3.7293    -0.4560    -1.4762 H       
  41 H41           -1.6659    -0.0842     2.2516 H       
  42 H42           -3.4450    -0.0432     2.2144 H       
  43 H43           -2.5825    -1.5627     1.8744 H       
@<TRIPOS>BOND
   1    1    2 am
   2    1   11 1
   3    1    6 1
   4    2    3 1
   5    2   21 2
   6    3    4 1
   7    3   24 1
   8    3   25 1
   9    4    5 1
  10    4   22 1
  11    4   23 1
  12    5    6 ar
  13    5    7 ar
  14    6   10 ar
  15    7    8 ar
  16    7   26 1
  17    8    9 ar
  18    8   17 1
  19    9   10 ar
  20    9   20 1
  21   10   12 1
  22   11   12 ar
  23   11   16 ar
  24   12   13 ar
  25   13   14 ar
  26   13   27 1
  27   14   15 ar
  28   14   28 1
  29   15   16 ar
  30   15   29 1
  31   16   30 1
  32   17   18 1
  33   17   31 1
  34   17   32 1
  35   18   19 1
  36   18   33 1
  37   18   34 1
  38   19   20 1
  39   19   35 1
  40   20   36 1
  41   20   37 1
  42   22   38 1
  43   22   39 1
  44   22   40 1
  45   23   41 1
  46   23   42 1
  47   23   43 1

#	End of record

