#	Name: ASD01200520
#	Creating user name:	WinNT
#	Creation time:	15. 06. 2019 19:09

#	Modifying user name:	WinNT
#	Modification time:	15. 06. 2019 19:09

#	Program:	/corina/corina34_cracker 3.40 0067  02.08.2006

@<TRIPOS>MOLECULE
ASD01200520
  26   27    0    0    0
SMALL
NO_CHARGES


@<TRIPOS>ATOM
   1 N1             2.2307     1.3387     0.5647 N.ar    
   2 C2             2.2416     0.0209     0.5646 C.ar    
   3 C3             1.2057    -0.6961    -0.0206 C.ar    
   4 C4             0.1516    -0.0017    -0.6089 C.ar    
   5 C5             0.1813     1.3832    -0.5852 C.ar    
   6 C6             1.2474     2.0255     0.0161 C.ar    
   7 N7             1.2213    -2.0947    -0.0195 N.am    
   8 C8             0.0668    -2.7814     0.0900 C.2     
   9 O9            -0.9784    -2.1880     0.2861 O.2     
  10 C10            0.0692    -4.1937    -0.0230 C.2     
  11 C11           -1.0364    -5.0024     0.0699 C.2     
  12 C12           -0.7411    -6.3417    -0.0849 C.2     
  13 C13            0.5495    -6.6166    -0.2951 C.2     
  14 S14            1.4874    -5.1919    -0.3121 S.3     
  15 O15           -2.2911    -4.5329     0.2915 O.3     
  16 C16           -3.3419    -5.4987     0.3632 C.3     
  17 H17            3.0643    -0.5069     1.0239 H       
  18 H18           -0.6685    -0.5297    -1.0725 H       
  19 H19           -0.6189     1.9544    -1.0321 H       
  20 H20            1.2755     3.1050     0.0373 H       
  21 H21            2.0631    -2.5703    -0.0975 H       
  22 H22           -1.4975    -7.1111    -0.0391 H       
  23 H23            0.9470    -7.6109    -0.4355 H       
  24 H24           -4.2898    -4.9917     0.5435 H       
  25 H25           -3.3963    -6.0470    -0.5773 H       
  26 H26           -3.1412    -6.1942     1.1782 H       
@<TRIPOS>BOND
   1    1    2 ar
   2    1    6 ar
   3    2    3 ar
   4    2   17 1
   5    3    4 ar
   6    3    7 1
   7    4    5 ar
   8    4   18 1
   9    5    6 ar
  10    5   19 1
  11    6   20 1
  12    7    8 am
  13    7   21 1
  14    8    9 2
  15    8   10 1
  16   10   11 2
  17   10   14 1
  18   11   12 1
  19   11   15 1
  20   12   13 2
  21   12   22 1
  22   13   14 1
  23   13   23 1
  24   15   16 1
  25   16   24 1
  26   16   25 1
  27   16   26 1

#	End of record

