#	Name: ASD01913897
#	Creating user name:	WinNT
#	Creation time:	15. 06. 2019 20:02

#	Modifying user name:	WinNT
#	Modification time:	15. 06. 2019 20:02

#	Program:	/corina/corina34_cracker 3.40 0067  02.08.2006

@<TRIPOS>MOLECULE
ASD01913897
  41   43    0    0    0
SMALL
NO_CHARGES


@<TRIPOS>ATOM
   1 C1            -0.0173     1.4278     0.0099 C.ar    
   2 C2             0.0021    -0.0041     0.0020 C.1     
   3 C3             0.0180    -1.1779    -0.0044 C.1     
   4 C4             0.0374    -2.6098    -0.0123 C.ar    
   5 C5            -1.1552    -3.3455    -0.0049 C.ar    
   6 C6             0.0738    -5.2913    -0.0280 C.ar    
   7 N7             1.2235    -4.6330    -0.0407 N.ar    
   8 C8             1.2495    -3.3127    -0.0336 C.ar    
   9 N9            -1.0934    -4.6646    -0.0130 N.ar    
  10 C10            1.1812     2.1459     0.0023 C.ar    
  11 C11            1.1562     3.5252     0.0095 C.ar    
  12 C12           -1.2350     2.1131     0.0194 C.ar    
  13 C13           -0.0518     4.1989     0.0246 C.ar    
  14 C14           -1.2456     3.4943     0.0264 C.ar    
  15 N15            0.0926    -6.6792    -0.0366 N.am    
  16 C16            1.1946    -7.4404    -0.0566 C.2     
  17 N17            0.9455    -8.7565    -0.0610 N.am    
  18 C18           -0.5089    -8.9730    -0.0419 C.3     
  19 C19           -1.0941    -7.5476    -0.0187 C.3     
  20 O20            2.3191    -6.9785    -0.0699 O.2     
  21 C21           -0.9567    -9.7227    -1.2982 C.3     
  22 C22           -0.9215    -9.7378     1.2174 C.3     
  23 C23            1.9607    -9.8125    -0.0815 C.3     
  24 F24           -2.4213     4.1596     0.0408 F       
  25 H25           -2.1103    -2.8414     0.0077 H       
  26 H26            2.1905    -2.7828    -0.0443 H       
  27 H27            2.1256     1.6221    -0.0088 H       
  28 H28            2.0824     4.0806     0.0036 H       
  29 H29           -2.1652     1.5644     0.0208 H       
  30 H30           -0.0649     5.2788     0.0305 H       
  31 H31           -1.6781    -7.3884     0.8877 H       
  32 H32           -1.7043    -7.3701    -0.9043 H       
  33 H33           -0.4756   -10.7003    -1.3288 H       
  34 H34           -2.0390    -9.8509    -1.2783 H       
  35 H35           -0.6747    -9.1511    -2.1823 H       
  36 H36           -0.6147    -9.1768     2.1001 H       
  37 H37           -2.0039    -9.8659     1.2264 H       
  38 H38           -0.4398   -10.7156     1.2228 H       
  39 H39            2.9533    -9.3621    -0.0923 H       
  40 H40            1.8543   -10.4361     0.8061 H       
  41 H41            1.8299   -10.4249    -0.9737 H       
@<TRIPOS>BOND
   1    1    2 1
   2    1   10 ar
   3    1   12 ar
   4    2    3 3
   5    3    4 1
   6    4    5 ar
   7    4    8 ar
   8    5    9 ar
   9    5   25 1
  10    6    7 ar
  11    6   15 1
  12    6    9 ar
  13    7    8 ar
  14    8   26 1
  15   10   11 ar
  16   10   27 1
  17   11   13 ar
  18   11   28 1
  19   12   14 ar
  20   12   29 1
  21   13   14 ar
  22   13   30 1
  23   14   24 1
  24   15   16 am
  25   15   19 1
  26   16   17 am
  27   16   20 2
  28   17   18 1
  29   17   23 1
  30   18   19 1
  31   18   21 1
  32   18   22 1
  33   19   31 1
  34   19   32 1
  35   21   33 1
  36   21   34 1
  37   21   35 1
  38   22   36 1
  39   22   37 1
  40   22   38 1
  41   23   39 1
  42   23   40 1
  43   23   41 1

#	End of record

