#	Name: ASD01913118
#	Creating user name:	WinNT
#	Creation time:	15. 06. 2019 20:01

#	Modifying user name:	WinNT
#	Modification time:	15. 06. 2019 20:01

#	Program:	/corina/corina34_cracker 3.40 0067  02.08.2006

@<TRIPOS>MOLECULE
ASD01913118
  45   48    0    0    0
SMALL
NO_CHARGES


@<TRIPOS>ATOM
   1 C1            -0.8974     1.9761     1.0657 C.ar    
   2 C2            -0.8836     0.5490     0.6589 C.2     
   3 N3            -1.9194    -0.3163     0.7376 N.2     
   4 C4            -1.5295    -1.4741     0.2897 C.2     
   5 O5            -0.2463    -1.3887    -0.0860 O.3     
   6 C6             0.1681    -0.1262     0.1345 C.2     
   7 C7            -2.3841    -2.7125     0.2072 C.3     
   8 C8            -2.4763    -3.1735    -1.2493 C.3     
   9 C9            -3.3707    -4.4121    -1.3385 C.3     
  10 C10           -2.7529    -5.5438    -0.5114 C.3     
  11 N11           -2.5268    -5.0601     0.8574 N.am    
  12 C12           -1.7551    -3.8250     1.0518 C.3     
  13 C13           -3.0179    -5.7365     1.9147 C.2     
  14 C14           -3.8621    -6.9297     1.7007 C.ar    
  15 O15           -2.7662    -5.3647     3.0444 O.2     
  16 C16           -3.4331    -7.9476     0.8463 C.ar    
  17 C17           -4.2245    -9.0590     0.6505 C.ar    
  18 C18           -5.4446    -9.1675     1.3002 C.ar    
  19 C19           -5.8756    -8.1596     2.1493 C.ar    
  20 C20           -5.0895    -7.0465     2.3566 C.ar    
  21 F21           -6.2165   -10.2590     1.1049 F       
  22 C22            0.2162     2.7802     0.8315 C.ar    
  23 C23            0.1988     4.1068     1.2109 C.ar    
  24 C24           -0.9235     4.6393     1.8242 C.ar    
  25 C25           -2.0329     3.8434     2.0589 C.ar    
  26 C26           -2.0263     2.5173     1.6776 C.ar    
  27 F27           -0.9360     5.9384     2.1949 F       
  28 H28            1.1531     0.2706    -0.0621 H       
  29 H29           -3.3831    -2.4908     0.5825 H       
  30 H30           -2.9009    -2.3743    -1.8569 H       
  31 H31           -1.4796    -3.4181    -1.6165 H       
  32 H32           -4.3605    -4.1749    -0.9484 H       
  33 H33           -3.4548    -4.7259    -2.3789 H       
  34 H34           -3.4337    -6.3948    -0.4904 H       
  35 H35           -1.8032    -5.8438    -0.9544 H       
  36 H36           -0.7241    -3.9849     0.7362 H       
  37 H37           -1.7775    -3.5419     2.1042 H       
  38 H38           -2.4830    -7.8639     0.3395 H       
  39 H39           -3.8938    -9.8466    -0.0103 H       
  40 H40           -6.8270    -8.2489     2.6526 H       
  41 H41           -5.4260    -6.2622     3.0184 H       
  42 H42            1.0918     2.3657     0.3541 H       
  43 H43            1.0615     4.7308     1.0299 H       
  44 H44           -2.9056     4.2625     2.5376 H       
  45 H45           -2.8916     1.8975     1.8609 H       
@<TRIPOS>BOND
   1    1    2 1
   2    1   22 ar
   3    1   26 ar
   4    2    3 1
   5    2    6 2
   6    3    4 2
   7    4    5 1
   8    4    7 1
   9    5    6 1
  10    6   28 1
  11    7    8 1
  12    7   12 1
  13    7   29 1
  14    8    9 1
  15    8   30 1
  16    8   31 1
  17    9   10 1
  18    9   32 1
  19    9   33 1
  20   10   11 1
  21   10   34 1
  22   10   35 1
  23   11   12 1
  24   11   13 am
  25   12   36 1
  26   12   37 1
  27   13   14 1
  28   13   15 2
  29   14   16 ar
  30   14   20 ar
  31   16   17 ar
  32   16   38 1
  33   17   18 ar
  34   17   39 1
  35   18   19 ar
  36   18   21 1
  37   19   20 ar
  38   19   40 1
  39   20   41 1
  40   22   23 ar
  41   22   42 1
  42   23   24 ar
  43   23   43 1
  44   24   25 ar
  45   24   27 1
  46   25   26 ar
  47   25   44 1
  48   26   45 1

#	End of record

