#	Name: ASD01150178
#	Creating user name:	WinNT
#	Creation time:	15. 06. 2019 19:03

#	Modifying user name:	WinNT
#	Modification time:	15. 06. 2019 19:03

#	Program:	/corina/corina34_cracker 3.40 0067  02.08.2006

@<TRIPOS>MOLECULE
ASD01150178
  48   51    0    0    0
SMALL
NO_CHARGES


@<TRIPOS>ATOM
   1 N1            -0.0167     1.3840     0.0097 N.pl3   
   2 C2             0.0021    -0.0041     0.0020 C.2     
   3 C3            -1.3271    -0.4131     0.0130 C.2     
   4 N4            -2.0856     0.6850     0.0264 N.2     
   5 C5            -1.3240     1.7575     0.0301 C.2     
   6 C6             1.0195    -0.9755    -0.0133 C.2     
   7 N7             0.6842    -2.2823    -0.0170 N.am    
   8 C8            -0.6038    -2.6665    -0.0067 C.2     
   9 N9            -1.6080    -1.7698     0.0085 N.am    
  10 O10            2.1909    -0.6402    -0.0235 O.2     
  11 C11           -2.9991    -2.2291     0.0194 C.3     
  12 O12           -0.8687    -3.8533    -0.0108 O.2     
  13 C13            1.7400    -3.2979    -0.0329 C.3     
  14 C14            2.1161    -3.6537     1.3824 C.ar    
  15 C15            1.4584    -4.6798     2.0348 C.ar    
  16 C16            1.8029    -5.0067     3.3328 C.ar    
  17 C17            2.8062    -4.3067     3.9791 C.ar    
  18 C18            3.4640    -3.2799     3.3256 C.ar    
  19 C19            3.1224    -2.9577     2.0256 C.ar    
  20 O20           -1.7715     3.0330     0.0430 O.3     
  21 C21           -3.1877     3.2236     0.0528 C.3     
  22 C22            1.0968     2.2358     0.0036 C.ar    
  23 C23           -3.4692    -2.3976     1.4656 C.3     
  24 Cl24           3.2390    -4.7162     5.6096 Cl      
  25 C25            1.3299     3.0674    -1.0834 C.ar    
  26 C26            2.4274     3.9058    -1.0876 C.ar    
  27 C27            3.2953     3.9170    -0.0086 C.ar    
  28 C28            3.0648     3.0880     1.0764 C.ar    
  29 C29            1.9647     2.2530     1.0871 C.ar    
  30 F30            4.3686     4.7375    -0.0147 F       
  31 H31           -3.6281    -1.4948    -0.4839 H       
  32 H32           -3.0702    -3.1850    -0.4995 H       
  33 H33            1.3797    -4.1884    -0.5480 H       
  34 H34            2.6137    -2.9056    -0.5533 H       
  35 H35            0.6751    -5.2259     1.5304 H       
  36 H36            1.2888    -5.8081     3.8426 H       
  37 H37            4.2472    -2.7331     3.8296 H       
  38 H38            3.6358    -2.1562     1.5154 H       
  39 H39           -3.6216     2.7700    -0.8383 H       
  40 H40           -3.6111     2.7557     0.9416 H       
  41 H41           -3.4107     4.2905     0.0627 H       
  42 H42           -2.8402    -3.1319     1.9689 H       
  43 H43           -3.3981    -1.4417     1.9845 H       
  44 H44           -4.5043    -2.7393     1.4737 H       
  45 H45            0.6536     3.0584    -1.9254 H       
  46 H46            2.6090     4.5528    -1.9330 H       
  47 H47            3.7432     3.0976     1.9167 H       
  48 H48            1.7850     1.6068     1.9336 H       
@<TRIPOS>BOND
   1    1    2 1
   2    1   22 1
   3    1    5 1
   4    2    3 2
   5    2    6 1
   6    3    4 1
   7    3    9 1
   8    4    5 2
   9    5   20 1
  10    6    7 am
  11    6   10 2
  12    7    8 am
  13    7   13 1
  14    8    9 am
  15    8   12 2
  16    9   11 1
  17   11   23 1
  18   11   31 1
  19   11   32 1
  20   13   14 1
  21   13   33 1
  22   13   34 1
  23   14   15 ar
  24   14   19 ar
  25   15   16 ar
  26   15   35 1
  27   16   17 ar
  28   16   36 1
  29   17   18 ar
  30   17   24 1
  31   18   19 ar
  32   18   37 1
  33   19   38 1
  34   20   21 1
  35   21   39 1
  36   21   40 1
  37   21   41 1
  38   22   25 ar
  39   22   29 ar
  40   23   42 1
  41   23   43 1
  42   23   44 1
  43   25   26 ar
  44   25   45 1
  45   26   27 ar
  46   26   46 1
  47   27   28 ar
  48   27   30 1
  49   28   29 ar
  50   28   47 1
  51   29   48 1

#	End of record

