#	Name: ASD01230149
#	Creating user name:	WinNT
#	Creation time:	15. 06. 2019 19:11

#	Modifying user name:	WinNT
#	Modification time:	15. 06. 2019 19:11

#	Program:	/corina/corina34_cracker 3.40 0067  02.08.2006

@<TRIPOS>MOLECULE
ASD01230149
  35   37    0    0    0
SMALL
NO_CHARGES


@<TRIPOS>ATOM
   1 C1             0.2010     2.1280     0.6320 C.3     
   2 C2             0.0223     0.7319     1.2629 C.3     
   3 O3             1.5506     2.1211     0.1338 O.3     
   4 C4             2.3568     1.4361     1.1056 C.3     
   5 C5             1.4224     0.4607     1.8678 C.3     
   6 C6             2.8317     2.4453     2.1713 C.3     
   7 N7             2.7004     1.7195     3.4606 N.3     
   8 C8             1.4283     0.9651     3.3264 C.3     
   9 C9             3.5247     0.6991     0.4471 C.3     
  10 N10           -0.2127    -0.2538     0.1985 N.3     
  11 C11           -1.4860    -0.0010    -0.4842 C.3     
  12 C12           -1.5222     1.4163    -0.9828 C.2     
  13 C13           -0.7719     2.3487    -0.4803 C.2     
  14 C14            4.2686     2.8289     1.9282 C.2     
  15 O15            5.1444     2.3550     2.6125 O.2     
  16 O16            4.5755     3.6970     0.9516 O.3     
  17 C17            4.2382    -0.1353     1.4795 C.2     
  18 O18            3.6841    -0.4191     2.5150 O.2     
  19 O19            5.4894    -0.5632     1.2487 O.3     
  20 H20            0.0899     2.8983     1.3952 H       
  21 H21           -0.7687     0.7186     2.0127 H       
  22 H22            1.7282    -0.5811     1.7717 H       
  23 H23            2.1953     3.3302     2.1670 H       
  24 H24            3.4787     1.0935     3.6040 H       
  25 H25            0.5768     1.6220     3.5044 H       
  26 H26            1.4110     0.1237     4.0191 H       
  27 H27            3.1462     0.0523    -0.3444 H       
  28 H28            4.2191     1.4242     0.0229 H       
  29 H29            0.5533    -0.2665    -0.4581 H       
  30 H30           -1.5874    -0.6845    -1.3271 H       
  31 H31           -2.3089    -0.1613     0.2124 H       
  32 H32           -2.1966     1.6680    -1.7879 H       
  33 H33           -0.8558     3.3440    -0.8910 H       
  34 H34            5.5108     3.9124     0.8336 H       
  35 H35            5.9059    -1.0954     1.9403 H       
@<TRIPOS>BOND
   1    1    2 1
   2    1    3 1
   3    1   13 1
   4    1   20 1
   5    2   10 1
   6    2    5 1
   7    2   21 1
   8    3    4 1
   9    4    5 1
  10    4    9 1
  11    4    6 1
  12    5    8 1
  13    5   22 1
  14    6    7 1
  15    6   14 1
  16    6   23 1
  17    7    8 1
  18    7   24 1
  19    8   25 1
  20    8   26 1
  21    9   17 1
  22    9   27 1
  23    9   28 1
  24   10   11 1
  25   10   29 1
  26   11   12 1
  27   11   30 1
  28   11   31 1
  29   12   13 2
  30   12   32 1
  31   13   33 1
  32   14   15 2
  33   14   16 1
  34   16   34 1
  35   17   18 2
  36   17   19 1
  37   19   35 1

#	End of record

