#	Name: ASD01200303
#	Creating user name:	WinNT
#	Creation time:	15. 06. 2019 19:08

#	Modifying user name:	WinNT
#	Modification time:	15. 06. 2019 19:08

#	Program:	/corina/corina34_cracker 3.40 0067  02.08.2006

@<TRIPOS>MOLECULE
ASD01200303
  15   16    0    0    0
SMALL
NO_CHARGES


@<TRIPOS>ATOM
   1 C1            -0.0169     1.3927     0.0097 C.ar    
   2 C2             0.0021    -0.0041     0.0020 C.ar    
   3 C3             1.2305    -0.6371    -0.0131 C.ar    
   4 C4             2.3891     0.1248    -0.0201 C.ar    
   5 N5             2.3490     1.4401    -0.0122 N.ar    
   6 C6            -1.0780     2.4011     0.0194 C.2     
   7 C7             1.1994     2.1018     0.0019 C.ar    
   8 N8             0.8842     3.4394     0.0121 N.pl3   
   9 C9            -0.4754     3.6005     0.0236 C.2     
  10 H10           -0.9162    -0.5725     0.0081 H       
  11 H11            1.2876    -1.7155    -0.0191 H       
  12 H12            3.3473    -0.3732    -0.0319 H       
  13 H13           -2.1419     2.2155     0.0227 H       
  14 H14            1.5300     4.1631     0.0104 H       
  15 H15           -0.9871     4.5515     0.0303 H       
@<TRIPOS>BOND
   1    1    2 ar
   2    1    7 ar
   3    1    6 1
   4    2    3 ar
   5    2   10 1
   6    3    4 ar
   7    3   11 1
   8    4    5 ar
   9    4   12 1
  10    5    7 ar
  11    6    9 2
  12    6   13 1
  13    7    8 1
  14    8    9 1
  15    8   14 1
  16    9   15 1

#	End of record

