#	Name: ASD01120051
#	Creating user name:	WinNT
#	Creation time:	15. 06. 2019 18:58

#	Modifying user name:	WinNT
#	Modification time:	15. 06. 2019 18:58

#	Program:	/corina/corina34_cracker 3.40 0067  02.08.2006

@<TRIPOS>MOLECULE
ASD01120051
  58   61    0    0    0
SMALL
NO_CHARGES


@<TRIPOS>ATOM
   1 C1            -0.0890     1.3618     0.6788 C.ar    
   2 C2            -0.0581    -0.0338     0.5513 C.ar    
   3 C3            -1.1980    -0.7360     0.2276 C.ar    
   4 C4            -2.3990    -0.0458     0.0243 C.ar    
   5 C5            -2.4225     1.3649     0.1549 C.ar    
   6 C6            -1.2513     2.0545     0.4903 C.ar    
   7 N7            -3.5370    -0.6830    -0.2933 N.ar    
   8 C8            -4.6472    -0.0092    -0.4782 C.ar    
   9 N9            -4.7168     1.3078    -0.3674 N.ar    
  10 C10           -3.6512     2.0348    -0.0570 C.ar    
  11 N11           -3.7383     3.4075     0.0556 N.pl3   
  12 C12           -4.9843     4.0397    -0.0357 C.ar    
  13 C13           -6.1292     3.3778     0.3760 C.ar    
  14 C14           -7.3674     4.0105     0.2835 C.ar    
  15 C15           -7.4497     5.3061    -0.2226 C.ar    
  16 C16           -6.3060     5.9628    -0.6321 C.ar    
  17 C17           -5.0729     5.3382    -0.5358 C.ar    
  18 C18           -8.5966     3.3052     0.7228 C.2     
  19 O19            1.0494     2.0331     0.9992 O.3     
  20 O20            1.1088    -0.7008     0.7488 O.3     
  21 C21            0.9538     3.4543     1.1147 C.3     
  22 C22            2.3241     4.0297     1.4779 C.3     
  23 C23            1.0759    -2.1222     0.6045 C.3     
  24 C24            2.4716    -2.6934     0.8625 C.3     
  25 C25           -9.8233     3.8607     0.6595 C.2     
  26 S26          -10.9817     2.6857     1.2769 S.3     
  27 C27           -9.7187     1.5693     1.5590 C.2     
  28 N28           -8.5860     2.0716     1.2067 N.2     
  29 C29           -9.9047     0.1887     2.1338 C.3     
  30 O30           -3.9489     5.9886    -0.9397 O.3     
  31 C31           -4.1140     7.3122    -1.4524 C.3     
  32 C32           -2.7499     7.8780    -1.8525 C.3     
  33 H33           -1.1654    -1.8112     0.1310 H       
  34 H34           -1.2646     3.1297     0.5909 H       
  35 H35           -5.5446    -0.5535    -0.7326 H       
  36 H36           -2.9364     3.9343     0.1981 H       
  37 H37           -6.0625     2.3735     0.7675 H       
  38 H38           -8.4089     5.7971    -0.2950 H       
  39 H39           -6.3723     6.9668    -1.0243 H       
  40 H40            0.6235     3.8745     0.1648 H       
  41 H41            0.2350     3.7080     1.8938 H       
  42 H42            2.2512     5.1137     1.5660 H       
  43 H43            2.6545     3.6094     2.4278 H       
  44 H44            3.0429     3.7760     0.6988 H       
  45 H45            0.3723    -2.5441     1.3222 H       
  46 H46            0.7601    -2.3775    -0.4070 H       
  47 H47            2.4466    -3.7775     0.7524 H       
  48 H48            3.1752    -2.2715     0.1448 H       
  49 H49            2.7875    -2.4381     1.8740 H       
  50 H50          -10.0548     4.8508     0.2955 H       
  51 H51          -10.9621     0.0194     2.3375 H       
  52 H52           -9.5491    -0.5534     1.4190 H       
  53 H53           -9.3376     0.1015     3.0605 H       
  54 H54           -4.7662     7.2849    -2.3253 H       
  55 H55           -4.5595     7.9459    -0.6856 H       
  56 H56           -2.0976     7.9052    -0.9797 H       
  57 H57           -2.3044     7.2442    -2.6194 H       
  58 H58           -2.8759     8.8876    -2.2436 H       
@<TRIPOS>BOND
   1    1    2 ar
   2    1   19 1
   3    1    6 ar
   4    2    3 ar
   5    2   20 1
   6    3    4 ar
   7    3   33 1
   8    4    5 ar
   9    4    7 ar
  10    5    6 ar
  11    5   10 ar
  12    6   34 1
  13    7    8 ar
  14    8    9 ar
  15    8   35 1
  16    9   10 ar
  17   10   11 1
  18   11   12 1
  19   11   36 1
  20   12   13 ar
  21   12   17 ar
  22   13   14 ar
  23   13   37 1
  24   14   15 ar
  25   14   18 1
  26   15   16 ar
  27   15   38 1
  28   16   17 ar
  29   16   39 1
  30   17   30 1
  31   18   25 2
  32   18   28 1
  33   19   21 1
  34   20   23 1
  35   21   22 1
  36   21   40 1
  37   21   41 1
  38   22   42 1
  39   22   43 1
  40   22   44 1
  41   23   24 1
  42   23   45 1
  43   23   46 1
  44   24   47 1
  45   24   48 1
  46   24   49 1
  47   25   26 1
  48   25   50 1
  49   26   27 1
  50   27   28 2
  51   27   29 1
  52   29   51 1
  53   29   52 1
  54   29   53 1
  55   30   31 1
  56   31   32 1
  57   31   54 1
  58   31   55 1
  59   32   56 1
  60   32   57 1
  61   32   58 1

#	End of record

