#	Name: ASD01231304
#	Creating user name:	WinNT
#	Creation time:	15. 06. 2019 19:15

#	Modifying user name:	WinNT
#	Modification time:	15. 06. 2019 19:15

#	Program:	/corina/corina34_cracker 3.40 0067  02.08.2006

@<TRIPOS>MOLECULE
ASD01231304
  45   48    0    0    0
SMALL
NO_CHARGES


@<TRIPOS>ATOM
   1 C1            -3.2526     1.1119     1.1569 C.3     
   2 C2            -2.8682    -0.3660     1.2510 C.3     
   3 C3            -4.1340    -1.2249     1.2242 C.3     
   4 S4            -1.8090    -0.8060    -0.1544 S.o2    
   5 O5            -2.5515    -0.7800    -1.3657 O.2     
   6 O6            -0.5499    -0.1551    -0.0529 O.2     
   7 N7            -1.4603    -2.4083     0.0766 N.am    
   8 C8            -1.6201    -3.2964     2.3834 C.3     
   9 C9            -0.6862    -2.8281     1.2474 C.3     
  10 C10            0.1263    -4.1036     0.9392 C.3     
  11 C11            0.1198    -4.8983     2.2276 C.ar    
  12 C12            0.9279    -5.9438     2.6393 C.ar    
  13 C13            0.7333    -6.5272     3.8818 C.ar    
  14 C14           -0.2749    -6.0598     4.7132 C.ar    
  15 C15           -1.0787    -5.0172     4.2997 C.ar    
  16 C16           -0.8839    -4.4345     3.0578 C.ar    
  17 O17            1.5271    -7.5538     4.2843 O.3     
  18 O18            4.6755    -9.9410     5.9454 O.3     
  19 N19            5.4942    -9.0633     6.1335 N.2     
  20 C20            4.9910    -7.9176     5.7438 C.ar    
  21 C21            3.6407    -8.3029     5.2608 C.ar    
  22 N22            3.6165    -9.5941     5.4610 N.2     
  23 C23            2.7709    -7.2571     4.7392 C.ar    
  24 C24            3.2321    -5.9740     4.7169 C.ar    
  25 C25            4.5089    -5.6427     5.1785 C.ar    
  26 C26            5.3694    -6.5642     5.6761 C.ar    
  27 H27           -3.8890     1.3763     2.0014 H       
  28 H28           -2.3507     1.7239     1.1760 H       
  29 H29           -3.7918     1.2886     0.2263 H       
  30 H30           -2.3289    -0.5426     2.1817 H       
  31 H31           -4.7188    -0.9825     0.3369 H       
  32 H32           -3.8574    -2.2790     1.2003 H       
  33 H33           -4.7276    -1.0252     2.1163 H       
  34 H34           -1.7687    -3.0689    -0.5633 H       
  35 H35           -1.7915    -2.4851     3.0908 H       
  36 H36           -2.5669    -3.6485     1.9738 H       
  37 H37           -0.0326    -2.0255     1.5892 H       
  38 H38           -0.3510    -4.6726     0.1414 H       
  39 H39            1.1475    -3.8434     0.6605 H       
  40 H40            1.7117    -6.3064     1.9908 H       
  41 H41           -0.4303    -6.5115     5.6818 H       
  42 H42           -1.8633    -4.6540     4.9468 H       
  43 H43            2.5936    -5.1928     4.3317 H       
  44 H44            4.8230    -4.6103     5.1367 H       
  45 H45            6.3461    -6.2592     6.0215 H       
@<TRIPOS>BOND
   1    1    2 1
   2    1   27 1
   3    1   28 1
   4    1   29 1
   5    2    3 1
   6    2    4 1
   7    2   30 1
   8    3   31 1
   9    3   32 1
  10    3   33 1
  11    4    5 2
  12    4    6 2
  13    4    7 am
  14    7    9 1
  15    7   34 1
  16    8    9 1
  17    8   16 1
  18    8   35 1
  19    8   36 1
  20    9   10 1
  21    9   37 1
  22   10   11 1
  23   10   38 1
  24   10   39 1
  25   11   12 ar
  26   11   16 ar
  27   12   13 ar
  28   12   40 1
  29   13   14 ar
  30   13   17 1
  31   14   15 ar
  32   14   41 1
  33   15   16 ar
  34   15   42 1
  35   17   23 1
  36   18   19 1
  37   18   22 1
  38   19   20 2
  39   20   21 ar
  40   20   26 ar
  41   21   22 2
  42   21   23 ar
  43   23   24 ar
  44   24   25 ar
  45   24   43 1
  46   25   26 ar
  47   25   44 1
  48   26   45 1

#	End of record

