#	Name: ASD02198364
#	Creating user name:	WinNT
#	Creation time:	15. 06. 2019 20:19

#	Modifying user name:	WinNT
#	Modification time:	15. 06. 2019 20:19

#	Program:	/corina/corina34_cracker 3.40 0067  02.08.2006

@<TRIPOS>MOLECULE
ASD02198364
  37   39    0    0    0
SMALL
NO_CHARGES


@<TRIPOS>ATOM
   1 C1             1.6345     1.6038    -2.9182 C.2     
   2 C2             1.7125     0.2266    -3.0485 C.2     
   3 S3             2.4683     2.0481    -1.4311 S.3     
   4 C4             2.8347     0.4073    -1.1264 C.2     
   5 N5             2.3608    -0.3567    -2.0688 N.2     
   6 N6             1.1594    -0.4672    -4.1109 N.pl3   
   7 C7             1.0121     2.4823    -3.8085 C.2     
   8 C8             1.0104     3.9631    -3.5286 C.3     
   9 O9             0.4716     2.0519    -4.8097 O.2     
  10 N10            3.5369    -0.0460    -0.0327 N.pl3   
  11 C11            0.8609     4.7479    -4.8436 C.3     
  12 C12            3.8880    -1.3970     0.0624 C.ar    
  13 C13            5.1422    -1.8220    -0.3589 C.ar    
  14 C14            5.4856    -3.1575    -0.2635 C.ar    
  15 C15            4.5826    -4.0703     0.2500 C.ar    
  16 C16            3.3336    -3.6512     0.6698 C.ar    
  17 C17            2.9856    -2.3162     0.5836 C.ar    
  18 C18           -0.4398     5.5685    -4.7217 C.3     
  19 C19           -0.6557     5.7133    -3.1948 C.3     
  20 C20           -0.2045     4.3340    -2.6534 C.3     
  21 Cl21           1.4174    -1.7911     1.1116 Cl      
  22 Cl22           6.2761    -0.6772    -1.0048 Cl      
  23 H23            0.6891     0.0121    -4.8109 H       
  24 H24            1.2420    -1.4326    -4.1553 H       
  25 H25            1.9346     4.2489    -3.0262 H       
  26 H26            3.7882     0.5712     0.6722 H       
  27 H27            1.7120     5.4153    -4.9791 H       
  28 H28            0.7895     4.0578    -5.6843 H       
  29 H29            6.4601    -3.4886    -0.5907 H       
  30 H30            4.8536    -5.1133     0.3230 H       
  31 H31            2.6308    -4.3670     1.0700 H       
  32 H32           -0.3178     6.5478    -5.1843 H       
  33 H33           -1.2731     5.0322    -5.1756 H       
  34 H34           -0.0315     6.5101    -2.7902 H       
  35 H35           -1.7069     5.8921    -2.9685 H       
  36 H36           -0.9999     3.5984    -2.7733 H       
  37 H37            0.0891     4.4126    -1.6066 H       
@<TRIPOS>BOND
   1    1    2 2
   2    1    3 1
   3    1    7 1
   4    2    6 1
   5    2    5 1
   6    3    4 1
   7    4    5 2
   8    4   10 1
   9    6   23 1
  10    6   24 1
  11    7    8 1
  12    7    9 2
  13    8   11 1
  14    8   20 1
  15    8   25 1
  16   10   12 1
  17   10   26 1
  18   11   18 1
  19   11   27 1
  20   11   28 1
  21   12   13 ar
  22   12   17 ar
  23   13   14 ar
  24   13   22 1
  25   14   15 ar
  26   14   29 1
  27   15   16 ar
  28   15   30 1
  29   16   17 ar
  30   16   31 1
  31   17   21 1
  32   18   19 1
  33   18   32 1
  34   18   33 1
  35   19   20 1
  36   19   34 1
  37   19   35 1
  38   20   36 1
  39   20   37 1

#	End of record

