#	Name: ASD09116236
#	Creating user name:	WinNT
#	Creation time:	15. 06. 2019 21:21

#	Modifying user name:	WinNT
#	Modification time:	15. 06. 2019 21:21

#	Program:	/corina/corina34_cracker 3.40 0067  02.08.2006

@<TRIPOS>MOLECULE
ASD09116236
  77   83    0    0    0
SMALL
NO_CHARGES


@<TRIPOS>ATOM
   1 N1            -0.0589     1.5273    -0.5284 N.2     
   2 N2            -0.0821     0.2484    -1.1077 N.pl3   
   3 C3             1.1949     1.9110    -0.4978 C.2     
   4 N4             1.9590     0.9468    -1.0243 N.2     
   5 C5             1.2030    -0.0635    -1.3973 C.2     
   6 N6             1.6572     3.1282     0.0023 N.pl3   
   7 C7             3.0332     3.3746     0.0833 C.ar    
   8 C8             3.5135     4.6727    -0.0242 C.ar    
   9 C9             5.7557     3.8645     0.2437 C.ar    
  10 C10            3.9172     2.3206     0.2770 C.ar    
  11 C11           -1.2076    -0.5446    -1.3389 C.ar    
  12 N12           -1.1864    -1.4622    -2.2941 N.ar    
  13 N13           -2.1984    -2.2111    -2.5541 N.ar    
  14 C14           -3.3307    -2.1069    -1.8772 C.ar    
  15 C15           -3.4384    -1.1801    -0.8363 C.ar    
  16 C16           -2.3543    -0.3744    -0.5591 C.ar    
  17 C17           -4.5159    -2.9307    -2.2102 C.ar    
  18 C18           -5.7518    -2.3016    -2.3685 C.ar    
  19 C19           -5.8378    -0.8044    -2.2528 C.3     
  20 C20           -5.7905    -0.3550    -0.7949 C.3     
  21 C21           -4.7036    -1.1074    -0.0319 C.3     
  22 C22           -4.4125    -4.3091    -2.3610 C.ar    
  23 C23           -5.5411    -5.0520    -2.6489 C.ar    
  24 C24           -6.7676    -4.4273    -2.7844 C.ar    
  25 C25           -6.8733    -3.0543    -2.6435 C.ar    
  26 N26            1.6432    -1.2360    -1.9815 N.pl3   
  27 C27            4.8711     4.9168     0.0560 C.ar    
  28 N28            7.1325     4.1125     0.3255 N.3     
  29 C29            7.6460     4.6550    -0.9401 C.3     
  30 C30            5.2752     2.5642     0.3573 C.ar    
  31 C31            7.4397     5.0139     1.4447 C.3     
  32 C32            8.9558     5.1958     1.5485 C.3     
  33 N33            9.4693     5.7383     0.2829 N.3     
  34 C34            9.1621     4.8368    -0.8363 C.3     
  35 C35           10.9126     5.9982     0.3686 C.3     
  36 F36            6.1361     1.5391     0.5397 F       
  37 C37           11.4329     6.4424    -0.9999 C.3     
  38 C38           12.9361     6.7132    -0.9106 C.3     
  39 C39           13.1954     7.8172     0.1164 C.3     
  40 C40           12.6750     7.3730     1.4849 C.3     
  41 C41           11.1718     7.1023     1.3957 C.3     
  42 H42            1.0255     3.8041     0.2940 H       
  43 H43            2.8255     5.4922    -0.1711 H       
  44 H44            3.5433     1.3112     0.3651 H       
  45 H45           -2.3932     0.3666     0.2257 H       
  46 H46           -5.0025    -0.3566    -2.7912 H       
  47 H47           -6.7719    -0.4652    -2.7004 H       
  48 H48           -5.5820     0.7142    -0.7556 H       
  49 H49           -6.7563    -0.5489    -0.3282 H       
  50 H50           -5.0505    -2.1181     0.1826 H       
  51 H51           -4.5022    -0.5915     0.9069 H       
  52 H52           -3.4548    -4.7965    -2.2532 H       
  53 H53           -5.4655    -6.1226    -2.7687 H       
  54 H54           -7.6479    -5.0140    -3.0013 H       
  55 H55           -7.8342    -2.5729    -2.7494 H       
  56 H56            2.5891    -1.3682    -2.1507 H       
  57 H57            1.0062    -1.9267    -2.2223 H       
  58 H58            5.2438     5.9270    -0.0277 H       
  59 H59            7.4173     3.9639    -1.7514 H       
  60 H60            7.1770     5.6185    -1.1396 H       
  61 H61            6.9684     5.9815     1.2723 H       
  62 H62            7.0606     4.5845     2.3721 H       
  63 H63            9.1845     5.8868     2.3598 H       
  64 H64            9.4248     4.2323     1.7480 H       
  65 H65            9.6335     3.8692    -0.6639 H       
  66 H66            9.5412     5.2662    -1.7637 H       
  67 H67           11.4281     5.0882     0.6755 H       
  68 H68           11.2482     5.6559    -1.7316 H       
  69 H69           10.9174     7.3524    -1.3068 H       
  70 H70           13.4516     5.8031    -0.6038 H       
  71 H71           13.3068     7.0296    -1.8856 H       
  72 H72           14.2663     8.0101     0.1800 H       
  73 H73           12.6798     8.7272    -0.1904 H       
  74 H74           13.1905     6.4630     1.7918 H       
  75 H75           12.8597     8.1596     2.2166 H       
  76 H76           10.6563     8.0123     1.0888 H       
  77 H77           10.8011     6.7858     2.3706 H       
@<TRIPOS>BOND
   1    1    2 1
   2    1    3 2
   3    2   11 1
   4    2    5 1
   5    3    4 1
   6    3    6 1
   7    4    5 2
   8    5   26 1
   9    6    7 1
  10    6   42 1
  11    7    8 ar
  12    7   10 ar
  13    8   27 ar
  14    8   43 1
  15    9   30 ar
  16    9   28 1
  17    9   27 ar
  18   10   30 ar
  19   10   44 1
  20   11   12 ar
  21   11   16 ar
  22   12   13 ar
  23   13   14 ar
  24   14   15 ar
  25   14   17 1
  26   15   16 ar
  27   15   21 1
  28   16   45 1
  29   17   18 ar
  30   17   22 ar
  31   18   19 1
  32   18   25 ar
  33   19   20 1
  34   19   46 1
  35   19   47 1
  36   20   21 1
  37   20   48 1
  38   20   49 1
  39   21   50 1
  40   21   51 1
  41   22   23 ar
  42   22   52 1
  43   23   24 ar
  44   23   53 1
  45   24   25 ar
  46   24   54 1
  47   25   55 1
  48   26   56 1
  49   26   57 1
  50   27   58 1
  51   28   31 1
  52   28   29 1
  53   29   34 1
  54   29   59 1
  55   29   60 1
  56   30   36 1
  57   31   32 1
  58   31   61 1
  59   31   62 1
  60   32   33 1
  61   32   63 1
  62   32   64 1
  63   33   34 1
  64   33   35 1
  65   34   65 1
  66   34   66 1
  67   35   37 1
  68   35   41 1
  69   35   67 1
  70   37   38 1
  71   37   68 1
  72   37   69 1
  73   38   39 1
  74   38   70 1
  75   38   71 1
  76   39   40 1
  77   39   72 1
  78   39   73 1
  79   40   41 1
  80   40   74 1
  81   40   75 1
  82   41   76 1
  83   41   77 1

#	End of record

