#	Name: ASD02030462
#	Creating user name:	WinNT
#	Creation time:	15. 06. 2019 20:15

#	Modifying user name:	WinNT
#	Modification time:	15. 06. 2019 20:15

#	Program:	/corina/corina34_cracker 3.40 0067  02.08.2006

@<TRIPOS>MOLECULE
ASD02030462
  60   63    0    0    0
SMALL
NO_CHARGES


@<TRIPOS>ATOM
   1 N1            -0.1445     1.3338    -0.2115 N.am    
   2 C2             0.0570    -0.0897     0.0937 C.3     
   3 C3            -0.8334    -0.4664     1.2843 C.3     
   4 N4            -2.1968     0.0157     1.0222 N.am    
   5 C5            -2.3982     1.4391     0.7170 C.3     
   6 C6            -1.5085     1.8170    -0.4680 C.3     
   7 C7             0.9022     2.1819    -0.2498 C.2     
   8 C8             2.2494     1.7113     0.1363 C.2     
   9 N9             3.3233     2.4604     0.2649 N.2     
  10 N10            2.5922     0.4422     0.4239 N.2     
  11 C11            3.8676     0.4406     0.7172 C.2     
  12 N12            4.3112     1.7102     0.6135 N.pl3   
  13 O13            0.7386     3.3338    -0.6020 O.2     
  14 C14           -3.2435    -0.8324     1.0606 C.2     
  15 C15           -4.6200    -0.3155     0.9046 C.ar    
  16 O16           -3.0559    -2.0223     1.2235 O.2     
  17 C17           -1.4933     3.3378    -0.6344 C.3     
  18 C18           -2.0457     1.1629    -1.7426 C.3     
  19 C19            5.6247     2.1405     0.8452 C.ar    
  20 C20            5.9522     3.4819     0.7032 C.ar    
  21 C21            7.2487     3.9033     0.9330 C.ar    
  22 C22            8.2189     2.9888     1.3036 C.ar    
  23 C23            7.8946     1.6521     1.4456 C.ar    
  24 C24            6.5997     1.2265     1.2229 C.ar    
  25 Cl25           7.6601     5.5805     0.7559 Cl      
  26 C26           -5.5865    -1.0838     0.2563 C.ar    
  27 C27           -6.8753    -0.5922     0.1138 C.ar    
  28 C28           -7.1999     0.6623     0.6163 C.ar    
  29 C29           -6.2415     1.4237     1.2589 C.ar    
  30 C30           -4.9578     0.9410     1.4108 C.ar    
  31 N31           -7.8473    -1.3576    -0.5353 N.pl3   
  32 C32           -7.4761    -2.6206    -1.1783 C.3     
  33 C33           -9.2376    -0.8973    -0.5729 C.3     
  34 H34           -0.2166    -0.6918    -0.7727 H       
  35 H35            1.1022    -0.2648     0.3487 H       
  36 H36           -0.8452    -1.5498     1.4039 H       
  37 H37           -0.4484     0.0001     2.1911 H       
  38 H38           -3.4434     1.6142     0.4621 H       
  39 H39           -2.1246     2.0413     1.5834 H       
  40 H40            4.4572    -0.4205     0.9950 H       
  41 H41           -0.9979     3.7922     0.2236 H       
  42 H42           -0.9542     3.5983    -1.5452 H       
  43 H43           -2.5170     3.7064    -0.7001 H       
  44 H44           -3.0624     1.5095    -1.9281 H       
  45 H45           -1.4101     1.4336    -2.5856 H       
  46 H46           -2.0475     0.0796    -1.6220 H       
  47 H47            5.1952     4.1955     0.4132 H       
  48 H48            9.2314     3.3196     1.4820 H       
  49 H49            8.6539     0.9406     1.7346 H       
  50 H50            6.3474     0.1824     1.3344 H       
  51 H51           -5.3320    -2.0583    -0.1338 H       
  52 H52           -8.2041     1.0437     0.5041 H       
  53 H53           -6.4995     2.3980     1.6470 H       
  54 H54           -4.2122     1.5388     1.9138 H       
  55 H55           -6.4289    -2.8401    -0.9705 H       
  56 H56           -8.1003    -3.4243    -0.7876 H       
  57 H57           -7.6232    -2.5370    -2.2551 H       
  58 H58           -9.3925    -0.2812    -1.4586 H       
  59 H59           -9.9046    -1.7587    -0.6083 H       
  60 H60           -9.4500    -0.3097     0.3202 H       
@<TRIPOS>BOND
   1    1    2 1
   2    1    7 am
   3    1    6 1
   4    2    3 1
   5    2   34 1
   6    2   35 1
   7    3    4 1
   8    3   36 1
   9    3   37 1
  10    4    5 1
  11    4   14 am
  12    5    6 1
  13    5   38 1
  14    5   39 1
  15    6   17 1
  16    6   18 1
  17    7    8 1
  18    7   13 2
  19    8    9 2
  20    8   10 1
  21    9   12 1
  22   10   11 2
  23   11   12 1
  24   11   40 1
  25   12   19 1
  26   14   15 1
  27   14   16 2
  28   15   26 ar
  29   15   30 ar
  30   17   41 1
  31   17   42 1
  32   17   43 1
  33   18   44 1
  34   18   45 1
  35   18   46 1
  36   19   20 ar
  37   19   24 ar
  38   20   21 ar
  39   20   47 1
  40   21   22 ar
  41   21   25 1
  42   22   23 ar
  43   22   48 1
  44   23   24 ar
  45   23   49 1
  46   24   50 1
  47   26   27 ar
  48   26   51 1
  49   27   28 ar
  50   27   31 1
  51   28   29 ar
  52   28   52 1
  53   29   30 ar
  54   29   53 1
  55   30   54 1
  56   31   32 1
  57   31   33 1
  58   32   55 1
  59   32   56 1
  60   32   57 1
  61   33   58 1
  62   33   59 1
  63   33   60 1

#	End of record

