#	Name: ASD01884131
#	Creating user name:	WinNT
#	Creation time:	15. 06. 2019 19:47

#	Modifying user name:	WinNT
#	Modification time:	15. 06. 2019 19:47

#	Program:	/corina/corina34_cracker 3.40 0067  02.08.2006

@<TRIPOS>MOLECULE
ASD01884131
  49   53    0    0    0
SMALL
NO_CHARGES


@<TRIPOS>ATOM
   1 C1             0.0167     1.3023     0.0899 C.2     
   2 C2            -0.0328    -0.0470    -0.1325 C.2     
   3 C3            -1.2849    -0.6959    -0.2052 C.2     
   4 C4            -2.4242     0.0079    -0.0573 C.2     
   5 N5            -2.3857     1.3537     0.1643 N.pl3   
   6 C6            -1.1843     2.0148     0.2474 C.2     
   7 N7            -1.4635     3.2910     0.4644 N.2     
   8 C8            -3.3466     2.3042     0.3478 C.2     
   9 N9            -2.7393     3.4489     0.5183 N.2     
  10 C10           -4.8364     2.0766     0.3502 C.3     
  11 C11            2.8402    -1.9914    -1.4622 C.3     
  12 C12            2.9509    -2.3611     0.0406 C.3     
  13 C13           -5.3021     1.7639     1.7737 C.3     
  14 C14           -6.8068     1.6160     2.0081 C.3     
  15 C15           -5.9037     0.3811     2.0323 C.3     
  16 C16            1.6317    -1.8172     0.6284 C.3     
  17 N17            1.1431    -0.7750    -0.2864 N.pl3   
  18 C18            2.1049    -0.6297    -1.3942 C.3     
  19 C19            3.0373    -3.8552     0.2172 C.ar    
  20 C20            4.1290    -4.4138     0.8551 C.ar    
  21 C21            4.2083    -5.7844     1.0170 C.ar    
  22 C22            3.1956    -6.5963     0.5415 C.ar    
  23 C23            2.1034    -6.0376    -0.0956 C.ar    
  24 C24            2.0221    -4.6667    -0.2537 C.ar    
  25 C25            1.3425     2.0141     0.1709 C.3     
  26 F26            1.7717     2.3487    -1.1179 F       
  27 F27            1.2004     3.1792     0.9323 F       
  28 F28            2.2860     1.1753     0.7736 F       
  29 H29           -1.3294    -1.7606    -0.3805 H       
  30 H30           -3.3767    -0.4978    -0.1150 H       
  31 H31           -5.3415     2.9734    -0.0086 H       
  32 H32           -5.0769     1.2381    -0.3032 H       
  33 H33            3.8273    -1.8805    -1.9110 H       
  34 H34            2.2474    -2.7289    -2.0034 H       
  35 H35            3.8089    -1.8675     0.4970 H       
  36 H36           -4.7102     2.2128     2.5713 H       
  37 H37           -7.2047     1.9672     2.9602 H       
  38 H38           -7.4649     1.7414     1.1483 H       
  39 H39           -5.9677    -0.3058     1.1884 H       
  40 H40           -5.7076    -0.0800     3.0003 H       
  41 H41            0.8987    -2.6208     0.7001 H       
  42 H42            1.8136    -1.3895     1.6143 H       
  43 H43            2.8112     0.1726    -1.1806 H       
  44 H44            1.5798    -0.4350    -2.3293 H       
  45 H45            4.9202    -3.7795     1.2266 H       
  46 H46            5.0616    -6.2208     1.5148 H       
  47 H47            3.2579    -7.6671     0.6674 H       
  48 H48            1.3124    -6.6720    -0.4675 H       
  49 H49            1.1688    -4.2303    -0.7515 H       
@<TRIPOS>BOND
   1    1    2 2
   2    1   25 1
   3    1    6 1
   4    2    3 1
   5    2   17 1
   6    3    4 2
   7    3   29 1
   8    4    5 1
   9    4   30 1
  10    5    6 1
  11    5    8 1
  12    6    7 2
  13    7    9 1
  14    8    9 2
  15    8   10 1
  16   10   13 1
  17   10   31 1
  18   10   32 1
  19   11   12 1
  20   11   18 1
  21   11   33 1
  22   11   34 1
  23   12   16 1
  24   12   19 1
  25   12   35 1
  26   13   14 1
  27   13   15 1
  28   13   36 1
  29   14   15 1
  30   14   37 1
  31   14   38 1
  32   15   39 1
  33   15   40 1
  34   16   17 1
  35   16   41 1
  36   16   42 1
  37   17   18 1
  38   18   43 1
  39   18   44 1
  40   19   20 ar
  41   19   24 ar
  42   20   21 ar
  43   20   45 1
  44   21   22 ar
  45   21   46 1
  46   22   23 ar
  47   22   47 1
  48   23   24 ar
  49   23   48 1
  50   24   49 1
  51   25   26 1
  52   25   27 1
  53   25   28 1

#	End of record

