#	Name: ASD05790101
#	Creating user name:	WinNT
#	Creation time:	15. 06. 2019 21:03

#	Modifying user name:	WinNT
#	Modification time:	15. 06. 2019 21:03

#	Program:	/corina/corina34_cracker 3.40 0067  02.08.2006

@<TRIPOS>MOLECULE
ASD05790101
  74   79    0    0    0
SMALL
NO_CHARGES


@<TRIPOS>ATOM
   1 C1             0.0787     1.5372    -0.1916 C.3     
   2 C2             0.1067     0.0252    -0.2223 C.2     
   3 C3             0.9467    -0.6936     0.8097 C.3     
   4 C4             2.3593    -0.1006     0.7893 C.3     
   5 C5             2.2778     1.4201     1.0019 C.3     
   6 C6             1.5203     2.0522    -0.1701 C.3     
   7 C7             3.2058    -0.7728     1.8656 C.3     
   8 C8             4.6056    -0.1470     1.9584 C.3     
   9 C9             4.4210     1.3306     2.2586 C.3     
  10 C10            3.6954     1.9477     1.0357 C.3     
  11 C11            5.7124     2.1597     2.2932 C.3     
  12 C12            5.2653     3.5711     1.9221 C.2     
  13 C13            3.8898     3.4401     1.2563 C.3     
  14 C14            1.5585     1.7273     2.3168 C.3     
  15 O15           -0.5242    -0.5907    -1.0474 O.2     
  16 C16            6.2966     2.1249     3.6924 C.3     
  17 C17            7.5794     2.8726     3.8347 C.3     
  18 C18            7.4459     4.3694     3.9764 C.3     
  19 C19            7.2036     5.0553     2.6429 C.3     
  20 C20            5.8974     4.6612     2.0540 C.2     
  21 C21            5.1482     5.8348     1.4773 C.3     
  22 C22            8.7546     4.9382     4.5927 C.3     
  23 C23            8.2706     5.6060     5.8826 C.3     
  24 C24            6.9895     4.7762     6.1775 C.3     
  25 O25            6.3742     4.6890     4.8962 O.3     
  26 N26            9.1409     5.4700     7.0420 N.3     
  27 C27            8.5009     6.1360     8.1938 C.3     
  28 C28            7.1381     5.5277     8.5118 C.3     
  29 C29            6.2316     5.5079     7.2685 C.3     
  30 C30            9.7397     3.8100     4.9051 C.3     
  31 C31            6.4647     6.3533     9.6098 C.3     
  32 H32           -0.4305     1.9119    -1.0796 H       
  33 H33           -0.4441     1.8754     0.7030 H       
  34 H34            0.5073    -0.5581     1.7979 H       
  35 H35            0.9923    -1.7557     0.5691 H       
  36 H36            2.8129    -0.2991    -0.1817 H       
  37 H37            2.0136     1.7880    -1.1054 H       
  38 H38            1.5164     3.1363    -0.0568 H       
  39 H39            2.7052    -0.6690     2.8282 H       
  40 H40            3.3048    -1.8324     1.6300 H       
  41 H41            5.1710    -0.6207     2.7609 H       
  42 H42            5.1304    -0.2702     1.0110 H       
  43 H43            3.8377     1.4697     3.1688 H       
  44 H44            4.2136     1.6581     0.1216 H       
  45 H45            6.4269     1.7822     1.5616 H       
  46 H46            3.8794     3.9680     0.3027 H       
  47 H47            3.1127     3.8298     1.9137 H       
  48 H48            2.1074     1.2786     3.1447 H       
  49 H49            1.5058     2.8068     2.4584 H       
  50 H50            0.5498     1.3155     2.2840 H       
  51 H51            5.5685     2.5503     4.3830 H       
  52 H52            6.4681     1.0852     3.9711 H       
  53 H53            8.1018     2.4913     4.7121 H       
  54 H54            8.1948     2.6655     2.9593 H       
  55 H55            7.2159     6.1352     2.7909 H       
  56 H56            8.0019     4.7830     1.9525 H       
  57 H57            5.7338     6.7435     1.6163 H       
  58 H58            4.9794     5.6706     0.4130 H       
  59 H59            4.1895     5.9390     1.9854 H       
  60 H60            9.2070     5.6720     3.9257 H       
  61 H61            8.0179     6.6505     5.7003 H       
  62 H62            7.2662     3.7800     6.5227 H       
  63 H63            9.3264     4.4988     7.2430 H       
  64 H64            9.1470     6.0361     9.0661 H       
  65 H65            8.3736     7.1944     7.9668 H       
  66 H66            7.2771     4.5071     8.8685 H       
  67 H67            6.0144     6.5276     6.9506 H       
  68 H68            5.3037     4.9820     7.4934 H       
  69 H69            9.8984     3.2081     4.0103 H       
  70 H70           10.6890     4.2360     5.2296 H       
  71 H71            9.3333     3.1820     5.6980 H       
  72 H72            6.3367     7.3797     9.2658 H       
  73 H73            5.4901     5.9236     9.8415 H       
  74 H74            7.0875     6.3449    10.5043 H       
@<TRIPOS>BOND
   1    1    2 1
   2    1    6 1
   3    1   32 1
   4    1   33 1
   5    2    3 1
   6    2   15 2
   7    3    4 1
   8    3   34 1
   9    3   35 1
  10    4    5 1
  11    4    7 1
  12    4   36 1
  13    5    6 1
  14    5   14 1
  15    5   10 1
  16    6   37 1
  17    6   38 1
  18    7    8 1
  19    7   39 1
  20    7   40 1
  21    8    9 1
  22    8   41 1
  23    8   42 1
  24    9   10 1
  25    9   11 1
  26    9   43 1
  27   10   13 1
  28   10   44 1
  29   11   12 1
  30   11   16 1
  31   11   45 1
  32   12   13 1
  33   12   20 2
  34   13   46 1
  35   13   47 1
  36   14   48 1
  37   14   49 1
  38   14   50 1
  39   16   17 1
  40   16   51 1
  41   16   52 1
  42   17   18 1
  43   17   53 1
  44   17   54 1
  45   18   19 1
  46   18   25 1
  47   18   22 1
  48   19   20 1
  49   19   55 1
  50   19   56 1
  51   20   21 1
  52   21   57 1
  53   21   58 1
  54   21   59 1
  55   22   23 1
  56   22   30 1
  57   22   60 1
  58   23   24 1
  59   23   26 1
  60   23   61 1
  61   24   25 1
  62   24   29 1
  63   24   62 1
  64   26   27 1
  65   26   63 1
  66   27   28 1
  67   27   64 1
  68   27   65 1
  69   28   29 1
  70   28   31 1
  71   28   66 1
  72   29   67 1
  73   29   68 1
  74   30   69 1
  75   30   70 1
  76   30   71 1
  77   31   72 1
  78   31   73 1
  79   31   74 1

#	End of record

