#	Name: ASD01914341
#	Creating user name:	WinNT
#	Creation time:	15. 06. 2019 20:03

#	Modifying user name:	WinNT
#	Modification time:	15. 06. 2019 20:03

#	Program:	/corina/corina34_cracker 3.40 0067  02.08.2006

@<TRIPOS>MOLECULE
ASD01914341
  43   46    0    0    0
SMALL
NO_CHARGES


@<TRIPOS>ATOM
   1 C1            -0.0479     1.3357     0.0266 C.2     
   2 N2            -0.0154     0.0308     0.0281 N.2     
   3 C3            -1.2730    -0.4253     0.0254 C.2     
   4 C4            -2.0986     0.6388     0.0250 C.2     
   5 O5            -1.3286     1.7372     0.0293 O.3     
   6 C6            -3.6032     0.5583     0.0314 C.3     
   7 C7            -4.0256    -0.8487    -0.4104 C.3     
   8 C8             1.1555     2.2428     0.0281 C.3     
   9 O9             1.5383     2.5285    -1.3187 O.3     
  10 C10            2.6145     3.3394    -1.4954 C.ar    
  11 C11            3.0413     3.6584    -2.7764 C.ar    
  12 C12            4.1355     4.4828    -2.9533 C.ar    
  13 C13            4.8053     4.9900    -1.8551 C.ar    
  14 C14            4.3822     4.6732    -0.5775 C.ar    
  15 C15            3.2847     3.8542    -0.3952 C.ar    
  16 C16           -1.7473    -1.8586     0.0181 C.3     
  17 N17           -3.1963    -1.8418     0.2886 N.am    
  18 C18           -3.7473    -2.7151     1.1546 C.2     
  19 C19           -2.9229    -3.7890     1.7458 C.ar    
  20 O20           -4.9229    -2.6192     1.4493 O.2     
  21 C21           -3.1509    -4.2049     3.0592 C.ar    
  22 C22           -2.3790    -5.2077     3.6057 C.ar    
  23 C23           -1.3777    -5.8031     2.8538 C.ar    
  24 C24           -1.1472    -5.3940     1.5492 C.ar    
  25 C25           -1.9166    -4.3958     0.9912 C.ar    
  26 F26           -0.6238    -6.7852     3.3944 F       
  27 H27           -3.9751     0.7523     1.0375 H       
  28 H28           -4.0114     1.2960    -0.6595 H       
  29 H29           -5.0744    -1.0094    -0.1611 H       
  30 H30           -3.8860    -0.9500    -1.4867 H       
  31 H31            0.9090     3.1726     0.5407 H       
  32 H32            1.9804     1.7513     0.5438 H       
  33 H33            2.5187     3.2622    -3.6345 H       
  34 H34            4.4684     4.7311    -3.9503 H       
  35 H35            5.6605     5.6344    -1.9956 H       
  36 H36            4.9074     5.0701     0.2787 H       
  37 H37            2.9546     3.6071     0.6030 H       
  38 H38           -1.5572    -2.3072    -0.9570 H       
  39 H39           -1.2316    -2.4239     0.7944 H       
  40 H40           -3.9303    -3.7415     3.6459 H       
  41 H41           -2.5543    -5.5299     4.6216 H       
  42 H42           -0.3657    -5.8609     0.9680 H       
  43 H43           -1.7365    -4.0781    -0.0252 H       
@<TRIPOS>BOND
   1    1    2 2
   2    1    8 1
   3    1    5 1
   4    2    3 1
   5    3    4 2
   6    3   16 1
   7    4    5 1
   8    4    6 1
   9    6    7 1
  10    6   27 1
  11    6   28 1
  12    7   17 1
  13    7   29 1
  14    7   30 1
  15    8    9 1
  16    8   31 1
  17    8   32 1
  18    9   10 1
  19   10   11 ar
  20   10   15 ar
  21   11   12 ar
  22   11   33 1
  23   12   13 ar
  24   12   34 1
  25   13   14 ar
  26   13   35 1
  27   14   15 ar
  28   14   36 1
  29   15   37 1
  30   16   17 1
  31   16   38 1
  32   16   39 1
  33   17   18 am
  34   18   19 1
  35   18   20 2
  36   19   21 ar
  37   19   25 ar
  38   21   22 ar
  39   21   40 1
  40   22   23 ar
  41   22   41 1
  42   23   24 ar
  43   23   26 1
  44   24   25 ar
  45   24   42 1
  46   25   43 1

#	End of record

