#	Name: ASD01148922
#	Creating user name:	WinNT
#	Creation time:	15. 06. 2019 19:03

#	Modifying user name:	WinNT
#	Modification time:	15. 06. 2019 19:03

#	Program:	/corina/corina34_cracker 3.40 0067  02.08.2006

@<TRIPOS>MOLECULE
ASD01148922
  51   54    0    0    0
SMALL
NO_CHARGES


@<TRIPOS>ATOM
   1 N1             0.2551     3.3063    -0.1010 N.am    
   2 C2             0.4263     1.8830    -0.4227 C.3     
   3 C3             1.3441     1.7601    -1.6431 C.3     
   4 C4             2.6529     2.5043    -1.3690 C.3     
   5 C5             2.3587     3.9876    -1.1332 C.3     
   6 C6             1.4523     4.1356     0.0929 C.3     
   7 S7            -1.2583     3.9649     0.0336 S.o2    
   8 O8            -1.1126     5.3578    -0.2069 O.2     
   9 O9            -2.1269     3.1323    -0.7225 O.2     
  10 C10           -1.7513     3.7995     1.7171 C.ar    
  11 C11           -1.4580     4.8017     2.6236 C.ar    
  12 C12           -1.8435     4.6751     3.9438 C.ar    
  13 C13           -2.5261     3.5401     4.3605 C.ar    
  14 C14           -2.8191     2.5355     3.4479 C.ar    
  15 C15           -2.4356     2.6703     2.1279 C.ar    
  16 N16           -2.9182     3.4086     5.6994 N.pl3   
  17 C17           -4.2118     3.4162     6.1608 C.2     
  18 C18           -4.1738     3.2634     7.5142 C.2     
  19 C19           -2.8234     3.1600     7.8870 C.2     
  20 C20           -2.0786     3.2454     6.7635 C.2     
  21 C21           -0.5747     3.1763     6.6964 C.3     
  22 C22           -5.4294     3.5645     5.3355 C.ar    
  23 C23           -6.6647     3.1383     5.8260 C.ar    
  24 C24           -7.7978     3.2801     5.0502 C.ar    
  25 C25           -7.7100     3.8438     3.7882 C.ar    
  26 C26           -6.4884     4.2678     3.2973 C.ar    
  27 C27           -5.3493     4.1364     4.0649 C.ar    
  28 Cl28          -9.3355     2.7505     5.6575 Cl      
  29 H29            0.8761     1.3680     0.4262 H       
  30 H30           -0.5438     1.4403    -0.6490 H       
  31 H31            1.5567     0.7083    -1.8339 H       
  32 H32            0.8529     2.1962    -2.5130 H       
  33 H33            3.1313     2.0840    -0.4843 H       
  34 H34            3.3177     2.3978    -2.2262 H       
  35 H35            3.2935     4.5211    -0.9612 H       
  36 H36            1.8580     4.4026    -2.0080 H       
  37 H37            1.1594     5.1793     0.2068 H       
  38 H38            1.9859     3.8044     0.9838 H       
  39 H39           -0.9267     5.6841     2.2990 H       
  40 H40           -1.6139     5.4580     4.6514 H       
  41 H41           -3.3496     1.6514     3.7692 H       
  42 H42           -2.6671     1.8912     1.4167 H       
  43 H43           -5.0250     3.2285     8.1780 H       
  44 H44           -2.4482     3.0307     8.8915 H       
  45 H45           -0.1601     4.1795     6.7955 H       
  46 H46           -0.2034     2.5480     7.5060 H       
  47 H47           -0.2729     2.7514     5.7390 H       
  48 H48           -6.7338     2.6983     6.8099 H       
  49 H49           -8.5990     3.9525     3.1848 H       
  50 H50           -6.4266     4.7066     2.3124 H       
  51 H51           -4.3970     4.4721     3.6818 H       
@<TRIPOS>BOND
   1    1    2 1
   2    1    6 1
   3    1    7 am
   4    2    3 1
   5    2   29 1
   6    2   30 1
   7    3    4 1
   8    3   31 1
   9    3   32 1
  10    4    5 1
  11    4   33 1
  12    4   34 1
  13    5    6 1
  14    5   35 1
  15    5   36 1
  16    6   37 1
  17    6   38 1
  18    7    8 2
  19    7    9 2
  20    7   10 1
  21   10   11 ar
  22   10   15 ar
  23   11   12 ar
  24   11   39 1
  25   12   13 ar
  26   12   40 1
  27   13   14 ar
  28   13   16 1
  29   14   15 ar
  30   14   41 1
  31   15   42 1
  32   16   17 1
  33   16   20 1
  34   17   18 2
  35   17   22 1
  36   18   19 1
  37   18   43 1
  38   19   20 2
  39   19   44 1
  40   20   21 1
  41   21   45 1
  42   21   46 1
  43   21   47 1
  44   22   23 ar
  45   22   27 ar
  46   23   24 ar
  47   23   48 1
  48   24   25 ar
  49   24   28 1
  50   25   26 ar
  51   25   49 1
  52   26   27 ar
  53   26   50 1
  54   27   51 1

#	End of record

