#	Name: ASD01816436
#	Creating user name:	WinNT
#	Creation time:	15. 06. 2019 19:35

#	Modifying user name:	WinNT
#	Modification time:	15. 06. 2019 19:35

#	Program:	/corina/corina34_cracker 3.40 0067  02.08.2006

@<TRIPOS>MOLECULE
ASD01816436
  53   58    0    0    0
SMALL
NO_CHARGES


@<TRIPOS>ATOM
   1 C1            -0.0167     1.3813     0.0096 C.ar    
   2 C2             0.0021    -0.0041     0.0020 C.ar    
   3 C3             1.1984    -0.6909    -0.0131 C.ar    
   4 C4             2.4015     0.0059    -0.0208 C.ar    
   5 C5             2.3790     1.4106    -0.0130 C.ar    
   6 C6             1.1663     2.0916     0.0022 C.ar    
   7 N7             3.6053    -0.6772    -0.0354 N.pl3   
   8 C8             4.7970    -0.0586    -0.0434 C.2     
   9 C9             4.9000     1.3103    -0.0371 C.2     
  10 C10            3.6670     2.1301    -0.0215 C.2     
  11 C11            5.9971     2.2729    -0.0428 C.2     
  12 N12            5.4246     3.4960    -0.0315 N.am    
  13 N13            4.0323     3.3799    -0.0189 N.2     
  14 C14            6.1265     4.7083    -0.0318 C.ar    
  15 O15            7.1914     2.0229    -0.0547 O.2     
  16 C16            3.5779    -2.1419    -0.0420 C.3     
  17 C17            3.5550    -2.6375    -1.4650 C.ar    
  18 C18            4.7426    -2.8868    -2.1280 C.ar    
  19 C19            4.7248    -3.3407    -3.4324 C.ar    
  20 C20            3.5129    -3.5470    -4.0776 C.ar    
  21 C21            2.3222    -3.2963    -3.4092 C.ar    
  22 C22            2.3464    -2.8475    -2.1031 C.ar    
  23 N23            3.4916    -4.0071    -5.4017 N.pl3   
  24 C24            2.3865    -4.2484    -6.1427 C.2     
  25 C25            2.7927    -4.6778    -7.3599 C.2     
  26 C26            4.1918    -4.7001    -7.3641 C.2     
  27 N27            4.6115    -4.2927    -6.1933 N.2     
  28 C28            6.5550     5.2759    -1.2279 C.ar    
  29 C29            7.2459     6.4764    -1.1774 C.ar    
  30 C30            7.4859     7.0672     0.0484 C.ar    
  31 N31            7.0675     6.5048     1.1663 N.ar    
  32 C32            6.4009     5.3659     1.1637 C.ar    
  33 F33            5.9862     4.8305     2.3326 F       
  34 C34            7.7308     7.1300    -2.4458 C.3     
  35 H35           -0.9602     1.9068     0.0169 H       
  36 H36           -0.9289    -0.5516     0.0083 H       
  37 H37            1.2004    -1.7709    -0.0185 H       
  38 H38            1.1506     3.1715     0.0081 H       
  39 H39            5.6983    -0.6536    -0.0548 H       
  40 H40            4.4658    -2.5242     0.4616 H       
  41 H41            2.6862    -2.4910     0.4787 H       
  42 H42            5.6850    -2.7261    -1.6255 H       
  43 H43            5.6527    -3.5345    -3.9500 H       
  44 H44            1.3780    -3.4555    -3.9087 H       
  45 H45            1.4204    -2.6523    -1.5826 H       
  46 H46            1.3635    -4.1217    -5.8206 H       
  47 H47            2.1504    -4.9544    -8.1830 H       
  48 H48            4.8176    -4.9979    -8.1924 H       
  49 H49            6.3543     4.7926    -2.1726 H       
  50 H50            8.0239     8.0026     0.0921 H       
  51 H51            6.9607     7.8012    -2.8259 H       
  52 H52            8.6376     7.6979    -2.2381 H       
  53 H53            7.9447     6.3635    -3.1907 H       
@<TRIPOS>BOND
   1    1    2 ar
   2    1    6 ar
   3    1   35 1
   4    2    3 ar
   5    2   36 1
   6    3    4 ar
   7    3   37 1
   8    4    5 ar
   9    4    7 1
  10    5    6 ar
  11    5   10 1
  12    6   38 1
  13    7    8 1
  14    7   16 1
  15    8    9 2
  16    8   39 1
  17    9   10 1
  18    9   11 1
  19   10   13 2
  20   11   12 am
  21   11   15 2
  22   12   13 1
  23   12   14 1
  24   14   32 ar
  25   14   28 ar
  26   16   17 1
  27   16   40 1
  28   16   41 1
  29   17   18 ar
  30   17   22 ar
  31   18   19 ar
  32   18   42 1
  33   19   20 ar
  34   19   43 1
  35   20   21 ar
  36   20   23 1
  37   21   22 ar
  38   21   44 1
  39   22   45 1
  40   23   24 1
  41   23   27 1
  42   24   25 2
  43   24   46 1
  44   25   26 1
  45   25   47 1
  46   26   27 2
  47   26   48 1
  48   28   29 ar
  49   28   49 1
  50   29   30 ar
  51   29   34 1
  52   30   31 ar
  53   30   50 1
  54   31   32 ar
  55   32   33 1
  56   34   51 1
  57   34   52 1
  58   34   53 1

#	End of record

