#	Name: ASD01810078
#	Creating user name:	WinNT
#	Creation time:	15. 06. 2019 19:23

#	Modifying user name:	WinNT
#	Modification time:	15. 06. 2019 19:23

#	Program:	/corina/corina34_cracker 3.40 0067  02.08.2006

@<TRIPOS>MOLECULE
ASD01810078
  29   31    0    0    0
SMALL
NO_CHARGES


@<TRIPOS>ATOM
   1 C1            -0.0167     1.3804     0.0096 C.ar    
   2 C2             0.0021    -0.0041     0.0020 C.ar    
   3 C3             1.2005    -0.6935    -0.0132 C.ar    
   4 C4             2.4043    -0.0017    -0.0205 C.ar    
   5 C5             2.3825     1.4028    -0.0128 C.ar    
   6 C6             1.1684     2.0883     0.0021 C.ar    
   7 N7             3.7234    -0.4489    -0.0358 N.am    
   8 C8             4.5905     0.5782    -0.0388 C.2     
   9 C9             3.7890     1.8460    -0.0242 C.2     
  10 O10            4.2062     2.9855    -0.0225 O.2     
  11 O11            5.8007     0.4950    -0.0505 O.2     
  12 C12            4.1161    -1.8603    -0.0472 C.3     
  13 C13            4.2368    -2.3366    -1.4719 C.ar    
  14 C14            5.3764    -2.0494    -2.2035 C.ar    
  15 C15            5.4875    -2.4875    -3.5124 C.ar    
  16 C16            4.4613    -3.2116    -4.0880 C.ar    
  17 C17            3.3216    -3.4993    -3.3560 C.ar    
  18 C18            3.2123    -3.0651    -2.0461 C.ar    
  19 F19            2.3181    -4.2074    -3.9189 F       
  20 F20            6.3799    -1.3413    -1.6406 F       
  21 H21           -0.9596     1.9070     0.0170 H       
  22 H22           -0.9291    -0.5511     0.0084 H       
  23 H23            1.2002    -1.7735    -0.0190 H       
  24 H24            1.1552     3.1682     0.0077 H       
  25 H25            5.0759    -1.9745     0.4566 H       
  26 H26            3.3611    -2.4517     0.4708 H       
  27 H27            6.3763    -2.2628    -4.0834 H       
  28 H28            4.5478    -3.5530    -5.1090 H       
  29 H29            2.3236    -3.2898    -1.4751 H       
@<TRIPOS>BOND
   1    1    2 ar
   2    1    6 ar
   3    1   21 1
   4    2    3 ar
   5    2   22 1
   6    3    4 ar
   7    3   23 1
   8    4    5 ar
   9    4    7 1
  10    5    6 ar
  11    5    9 1
  12    6   24 1
  13    7    8 am
  14    7   12 1
  15    8    9 1
  16    8   11 2
  17    9   10 2
  18   12   13 1
  19   12   25 1
  20   12   26 1
  21   13   14 ar
  22   13   18 ar
  23   14   15 ar
  24   14   20 1
  25   15   16 ar
  26   15   27 1
  27   16   17 ar
  28   16   28 1
  29   17   18 ar
  30   17   19 1
  31   18   29 1

#	End of record

