#	Name: ASD09740157
#	Creating user name:	WinNT
#	Creation time:	15. 06. 2019 21:22

#	Modifying user name:	WinNT
#	Modification time:	15. 06. 2019 21:22

#	Program:	/corina/corina34_cracker 3.40 0067  02.08.2006

@<TRIPOS>MOLECULE
ASD09740157
  31   33    0    0    0
SMALL
NO_CHARGES


@<TRIPOS>ATOM
   1 S1            -0.0172     1.4168     0.0098 S.o2    
   2 O2            -4.5898     3.0016    -6.3454 O.3     
   3 N3            -4.1222     2.3788    -5.4157 N.2     
   4 C4            -4.0220     4.2153    -6.4141 C.2     
   5 N5            -3.1489     4.2863    -5.4282 N.2     
   6 C6            -3.2235     3.0978    -4.7935 C.2     
   7 C7            -2.4323     2.6830    -3.6080 C.ar    
   8 C8            -4.3184     5.2722    -7.4068 C.ar    
   9 C9            -2.6145     1.4179    -3.0537 C.ar    
  10 C10           -1.5004     3.5551    -3.0494 C.ar    
  11 C11           -0.7677     3.1644    -1.9468 C.ar    
  12 C12           -0.9567     1.9094    -1.3970 C.ar    
  13 C13           -1.8762     1.0373    -1.9514 C.ar    
  14 C14           -5.2731     5.0694    -8.4087 C.ar    
  15 C15           -5.5193     6.0831    -9.3150 C.ar    
  16 N16           -4.8678     7.2287    -9.2436 N.ar    
  17 C17           -3.9597     7.4605    -8.3143 C.ar    
  18 C18           -3.6558     6.5033    -7.3652 C.ar    
  19 O19            0.0021    -0.0041     0.0020 O.2     
  20 O20            1.1617     2.2101     0.0028 O.2     
  21 N21           -0.8748     1.8654     1.3536 N.am    
  22 Cl22          -3.1406     8.9907    -8.2801 Cl      
  23 Cl23          -6.7009     5.8463   -10.5646 Cl      
  24 H24           -3.3324     0.7363    -3.4856 H       
  25 H25           -1.3516     4.5350    -3.4784 H       
  26 H26           -0.0451     3.8397    -1.5130 H       
  27 H27           -2.0199     0.0585    -1.5182 H       
  28 H28           -5.8097     4.1344    -8.4732 H       
  29 H29           -2.9116     6.6997    -6.6076 H       
  30 H30           -0.7362     2.7410     1.7474 H       
  31 H31           -1.5157     1.2527     1.7468 H       
@<TRIPOS>BOND
   1    1   19 2
   2    1   20 2
   3    1   21 am
   4    1   12 1
   5    2    3 1
   6    2    4 1
   7    3    6 2
   8    4    5 2
   9    4    8 1
  10    5    6 1
  11    6    7 1
  12    7    9 ar
  13    7   10 ar
  14    8   14 ar
  15    8   18 ar
  16    9   13 ar
  17    9   24 1
  18   10   11 ar
  19   10   25 1
  20   11   12 ar
  21   11   26 1
  22   12   13 ar
  23   13   27 1
  24   14   15 ar
  25   14   28 1
  26   15   16 ar
  27   15   23 1
  28   16   17 ar
  29   17   18 ar
  30   17   22 1
  31   18   29 1
  32   21   30 1
  33   21   31 1

#	End of record

