#	Name: ASD01816337
#	Creating user name:	WinNT
#	Creation time:	15. 06. 2019 19:35

#	Modifying user name:	WinNT
#	Modification time:	15. 06. 2019 19:35

#	Program:	/corina/corina34_cracker 3.40 0067  02.08.2006

@<TRIPOS>MOLECULE
ASD01816337
  53   58    0    0    0
SMALL
NO_CHARGES


@<TRIPOS>ATOM
   1 C1            -0.0175     1.3973     0.2786 C.ar    
   2 C2            -0.0020     0.0118     0.2833 C.ar    
   3 C3             1.1912    -0.6781     0.2282 C.ar    
   4 C4             2.3947     0.0156     0.1676 C.ar    
   5 C5             2.3756     1.4204     0.1629 C.ar    
   6 C6             1.1657     2.1046     0.2184 C.ar    
   7 N7             3.5954    -0.6705     0.1131 N.pl3   
   8 C8             4.7874    -0.0548     0.0533 C.2     
   9 C9             4.8933     1.3137     0.0423 C.2     
  10 C10            3.6638     2.1366     0.0981 C.2     
  11 C11            5.9916     2.2737    -0.0153 C.2     
  12 N12            5.4223     3.4982     0.0062 N.am    
  13 N13            4.0314     3.3855     0.0742 N.2     
  14 O14            7.1830     2.0209    -0.0712 O.2     
  15 C15            3.5646    -2.1351     0.1214 C.3     
  16 C16            3.4858    -2.6440    -1.2949 C.ar    
  17 C17            4.6464    -2.9024    -2.0008 C.ar    
  18 C18            4.5774    -3.3684    -3.2992 C.ar    
  19 C19            3.3412    -3.5777    -3.8953 C.ar    
  20 C20            2.1776    -3.3178    -3.1839 C.ar    
  21 C21            2.2530    -2.8568    -1.8840 C.ar    
  22 N22            3.2679    -4.0502    -5.2131 N.pl3   
  23 C23            2.1345    -4.2956    -5.9087 C.2     
  24 C24            2.4926    -4.7374    -7.1366 C.2     
  25 C25            3.8903    -4.7632    -7.1945 C.2     
  26 N26            4.3558    -4.3460    -6.0446 N.2     
  27 C27            6.0995     4.6629    -0.0324 C.2     
  28 O28            7.3140     4.6616     0.0142 O.2     
  29 C29            5.3663     5.9396    -0.1311 C.ar    
  30 C30            6.0535     7.1540    -0.0336 C.ar    
  31 C31            5.3595     8.3465    -0.1277 C.ar    
  32 C32            3.9906     8.3399    -0.3174 C.ar    
  33 C33            3.3030     7.1396    -0.4150 C.ar    
  34 C34            3.9830     5.9413    -0.3283 C.ar    
  35 F35            7.3917     7.1621     0.1523 F       
  36 F36            1.9648     7.1429    -0.6005 F       
  37 H37           -0.9588     1.9253     0.3176 H       
  38 H38           -0.9332    -0.5332     0.3310 H       
  39 H39            1.1906    -1.7581     0.2325 H       
  40 H40            1.1526     3.1845     0.2147 H       
  41 H41            5.6862    -0.6521     0.0132 H       
  42 H42            4.4704    -2.5149     0.5940 H       
  43 H43            2.6929    -2.4771     0.6793 H       
  44 H44            5.6078    -2.7393    -1.5366 H       
  45 H45            5.4843    -3.5694    -3.8503 H       
  46 H46            1.2145    -3.4793    -3.6451 H       
  47 H47            1.3483    -2.6545    -1.3301 H       
  48 H48            1.1249    -4.1633    -5.5487 H       
  49 H49            1.8185    -5.0201    -7.9316 H       
  50 H50            4.4831    -5.0703    -8.0434 H       
  51 H51            5.8884     9.2851    -0.0523 H       
  52 H52            3.4537     9.2741    -0.3898 H       
  53 H53            3.4460     5.0074    -0.4048 H       
@<TRIPOS>BOND
   1    1    2 ar
   2    1    6 ar
   3    1   37 1
   4    2    3 ar
   5    2   38 1
   6    3    4 ar
   7    3   39 1
   8    4    5 ar
   9    4    7 1
  10    5    6 ar
  11    5   10 1
  12    6   40 1
  13    7    8 1
  14    7   15 1
  15    8    9 2
  16    8   41 1
  17    9   10 1
  18    9   11 1
  19   10   13 2
  20   11   12 am
  21   11   14 2
  22   12   13 1
  23   12   27 am
  24   15   16 1
  25   15   42 1
  26   15   43 1
  27   16   17 ar
  28   16   21 ar
  29   17   18 ar
  30   17   44 1
  31   18   19 ar
  32   18   45 1
  33   19   20 ar
  34   19   22 1
  35   20   21 ar
  36   20   46 1
  37   21   47 1
  38   22   23 1
  39   22   26 1
  40   23   24 2
  41   23   48 1
  42   24   25 1
  43   24   49 1
  44   25   26 2
  45   25   50 1
  46   27   28 2
  47   27   29 1
  48   29   30 ar
  49   29   34 ar
  50   30   31 ar
  51   30   35 1
  52   31   32 ar
  53   31   51 1
  54   32   33 ar
  55   32   52 1
  56   33   34 ar
  57   33   36 1
  58   34   53 1

#	End of record

