#	Name: ASD00840393
#	Creating user name:	WinNT
#	Creation time:	15. 06. 2019 18:38

#	Modifying user name:	WinNT
#	Modification time:	15. 06. 2019 18:38

#	Program:	/corina/corina34_cracker 3.40 0067  02.08.2006

@<TRIPOS>MOLECULE
ASD00840393
  93   98    0    0    0
SMALL
NO_CHARGES


@<TRIPOS>ATOM
   1 F1            -0.1010    -3.1560     4.7185 F       
   2 N2            -0.0052     1.3210     0.0354 N.ar    
   3 C3             0.0088    -0.0013     0.0185 C.ar    
   4 C4             1.2116    -0.6962    -0.0015 C.ar    
   5 C5             2.3993     0.0138    -0.0035 C.ar    
   6 C6             2.3417     1.4008     0.0147 C.ar    
   7 C7             1.1108     2.0254     0.0340 C.ar    
   8 C8             1.2227    -2.2030    -0.0203 C.3     
   9 C9             0.4753    -2.7236    -1.2293 C.2     
  10 N10            2.5990    -2.7049    -0.0126 N.am    
  11 C11            3.4464    -2.3633    -1.0034 C.2     
  12 N12            4.7400    -2.7368    -0.9424 N.am    
  13 O13            3.0439    -1.7183    -1.9522 O.2     
  14 C14            5.2678    -3.4156     0.2489 C.3     
  15 C15            6.4986    -2.6515     0.7470 C.3     
  16 C16            7.5064    -2.5146    -0.3967 C.3     
  17 C17            6.8755    -1.7199    -1.5424 C.3     
  18 C18            5.6476    -2.4785    -2.0686 C.3     
  19 N19            8.7022    -1.8113     0.0864 N.3     
  20 C20            9.7414    -1.7652    -0.9517 C.3     
  21 C21           10.9360    -0.9579    -0.4385 C.3     
  22 N22           11.4507    -1.5773     0.7908 N.3     
  23 C23           10.4116    -1.6233     1.8289 C.3     
  24 C24            9.2169    -2.4306     1.3156 C.3     
  25 C25           12.6466    -0.8740     1.2738 C.3     
  26 O26            0.7564    -2.5210    -2.3917 O.2     
  27 N27           -0.5572    -3.4525    -0.7739 N.am    
  28 C28            0.4488    -2.7530     1.1565 C.ar    
  29 C29           -0.6026    -3.4906     0.6219 C.ar    
  30 C30            0.6177    -2.6397     2.5188 C.ar    
  31 C31           -0.2652    -3.2651     3.3819 C.ar    
  32 C32           -1.3282    -4.0109     2.8624 C.ar    
  33 C33           -1.4932    -4.1219     1.4821 C.ar    
  34 C34           -1.0260    -5.8357    -2.0681 C.ar    
  35 C35           -1.3600    -6.8798    -1.2255 C.ar    
  36 C36           -0.2077    -6.0598    -3.1598 C.ar    
  37 C37            0.2784    -7.3283    -3.4112 C.ar    
  38 C38           -0.0551    -8.3776    -2.5673 C.ar    
  39 C39           -0.8761    -8.1500    -1.4723 C.ar    
  40 O40            0.4214    -9.6264    -2.8127 O.3     
  41 H41           -1.9994    -6.7022    -0.3735 H       
  42 C42            0.0369   -10.6582    -1.9019 C.3     
  43 C43           13.0792    -1.4664     2.6165 C.3     
  44 C44           13.7784    -1.0348     0.2570 C.3     
  45 C45           -2.2466    -4.6614     3.7479 C.1     
  46 N46           -2.9751    -5.1774     4.4504 N.1     
  47 S47           -1.6503    -4.2181    -1.7544 S.o2    
  48 O48           -2.8319    -4.3867    -0.9832 O.2     
  49 O49           -1.6251    -3.5302    -2.9975 O.2     
  50 O50           -1.1626    -0.6857     0.0211 O.3     
  51 C51           -3.5735    -0.8520     0.0423 C.3     
  52 C52           -2.3650     0.0862     0.0425 C.3     
  53 H53            3.3495    -0.4994    -0.0185 H       
  54 H54            3.2501     1.9849     0.0140 H       
  55 H55            1.0604     3.1041     0.0479 H       
  56 H56            2.9004    -3.2830     0.7057 H       
  57 H57            4.5064    -3.4299     1.0288 H       
  58 H58            5.5506    -4.4366    -0.0074 H       
  59 H59            6.1984    -1.6606     1.0879 H       
  60 H60            6.9565    -3.1973     1.5719 H       
  61 H61            7.7874    -3.5054    -0.7536 H       
  62 H62            6.5717    -0.7378    -1.1799 H       
  63 H63            7.6015    -1.6027    -2.3468 H       
  64 H64            5.9639    -3.4218    -2.5137 H       
  65 H65            5.1365    -1.8723    -2.8166 H       
  66 H66           10.0629    -2.7792    -1.1896 H       
  67 H67            9.3399    -1.2912    -1.8474 H       
  68 H68           11.7199    -0.9469    -1.1958 H       
  69 H69           10.6204     0.0636    -0.2264 H       
  70 H70           10.8130    -2.0973     2.7245 H       
  71 H71           10.0900    -0.6093     2.0667 H       
  72 H72            8.4331    -2.4417     2.0730 H       
  73 H73            9.5325    -3.4522     1.1035 H       
  74 H74           12.4193     0.1846     1.4001 H       
  75 H75            1.4404    -2.0624     2.9140 H       
  76 H76           -2.3141    -4.6980     1.0813 H       
  77 H77            0.0514    -5.2427    -3.8167 H       
  78 H78            0.9174    -7.5029    -4.2643 H       
  79 H79           -1.1375    -8.9653    -0.8141 H       
  80 H80            0.3816   -10.4049    -0.8994 H       
  81 H81           -1.0489   -10.7543    -1.8993 H       
  82 H82            0.4845   -11.6023    -2.2124 H       
  83 H83           13.9665    -0.9446     2.9749 H       
  84 H84           12.2729    -1.3518     3.3409 H       
  85 H85           13.3064    -2.5250     2.4902 H       
  86 H86           13.4702    -0.6128    -0.6996 H       
  87 H87           14.6657    -0.5130     0.6154 H       
  88 H88           14.0056    -2.0934     0.1307 H       
  89 H89           -3.5369    -1.4920     0.9239 H       
  90 H90           -4.4906    -0.2632     0.0586 H       
  91 H91           -3.5541    -1.4693    -0.8559 H       
  92 H92           -2.3844     0.7035     0.9407 H       
  93 H93           -2.4016     0.7262    -0.8391 H       
@<TRIPOS>BOND
   1    1   31 1
   2    2    3 ar
   3    2    7 ar
   4    3    4 ar
   5    3   50 1
   6    4    5 ar
   7    4    8 1
   8    5    6 ar
   9    5   53 1
  10    6    7 ar
  11    6   54 1
  12    7   55 1
  13    8    9 1
  14    8   10 1
  15    8   28 1
  16    9   26 2
  17    9   27 am
  18   10   11 am
  19   10   56 1
  20   11   12 am
  21   11   13 2
  22   12   14 1
  23   12   18 1
  24   14   15 1
  25   14   57 1
  26   14   58 1
  27   15   16 1
  28   15   59 1
  29   15   60 1
  30   16   17 1
  31   16   19 1
  32   16   61 1
  33   17   18 1
  34   17   62 1
  35   17   63 1
  36   18   64 1
  37   18   65 1
  38   19   20 1
  39   19   24 1
  40   20   21 1
  41   20   66 1
  42   20   67 1
  43   21   22 1
  44   21   68 1
  45   21   69 1
  46   22   23 1
  47   22   25 1
  48   23   24 1
  49   23   70 1
  50   23   71 1
  51   24   72 1
  52   24   73 1
  53   25   43 1
  54   25   44 1
  55   25   74 1
  56   27   47 am
  57   27   29 1
  58   28   29 ar
  59   28   30 ar
  60   29   33 ar
  61   30   31 ar
  62   30   75 1
  63   31   32 ar
  64   32   33 ar
  65   32   45 1
  66   33   76 1
  67   34   35 ar
  68   34   36 ar
  69   34   47 1
  70   35   41 1
  71   35   39 ar
  72   36   37 ar
  73   36   77 1
  74   37   38 ar
  75   37   78 1
  76   38   39 ar
  77   38   40 1
  78   39   79 1
  79   40   42 1
  80   42   80 1
  81   42   81 1
  82   42   82 1
  83   43   83 1
  84   43   84 1
  85   43   85 1
  86   44   86 1
  87   44   87 1
  88   44   88 1
  89   45   46 3
  90   47   48 2
  91   47   49 2
  92   50   52 1
  93   51   52 1
  94   51   89 1
  95   51   90 1
  96   51   91 1
  97   52   92 1
  98   52   93 1

#	End of record

