#	Name: ASD03240071
#	Creating user name:	WinNT
#	Creation time:	15. 06. 2019 20:34

#	Modifying user name:	WinNT
#	Modification time:	15. 06. 2019 20:34

#	Program:	/corina/corina34_cracker 3.40 0067  02.08.2006

@<TRIPOS>MOLECULE
ASD03240071
  69   74    0    0    0
SMALL
NO_CHARGES


@<TRIPOS>ATOM
   1 C1            -0.0170     1.4031     0.0098 C.ar    
   2 C2             0.0021    -0.0041     0.0020 C.ar    
   3 C3             1.1955     2.0999     0.0019 C.ar    
   4 C4             2.3797     1.3665    -0.0133 C.ar    
   5 C5             2.3159    -0.0372    -0.0203 C.ar    
   6 N6             1.1473    -0.6644    -0.0125 N.ar    
   7 C7             3.5690    -0.8260    -0.0365 C.ar    
   8 C8             3.6908     2.0583    -0.0226 C.ar    
   9 C9             3.9390     3.0749    -0.9436 C.ar    
  10 C10            5.1615     3.7153    -0.9476 C.ar    
  11 C11            6.1395     3.3502    -0.0400 C.ar    
  12 C12            5.8989     2.3421     0.8762 C.ar    
  13 C13            4.6783     1.6985     0.8934 C.ar    
  14 C14            3.6418    -2.0391     0.6483 C.ar    
  15 C15            4.8121    -2.7698     0.6291 C.ar    
  16 C16            5.9121    -2.3013    -0.0672 C.ar    
  17 C17            5.8461    -1.0989    -0.7483 C.ar    
  18 C18            4.6797    -0.3619    -0.7413 C.ar    
  19 C19            7.1875    -3.1038    -0.0833 C.3     
  20 N20            7.1681    -4.0312    -1.2224 N.3     
  21 C21            8.4820    -4.6590    -1.4123 C.3     
  22 C22            8.4658    -5.5031    -2.6887 C.3     
  23 C23            7.3791    -6.5755    -2.5718 C.3     
  24 C24            6.0284    -5.8975    -2.3262 C.3     
  25 C25            6.1152    -5.0419    -1.0603 C.3     
  26 N26            7.3196    -7.3497    -3.8141 N.am    
  27 C27            7.5276    -8.7220    -3.9301 C.ar    
  28 C28            7.3769    -9.0402    -5.2812 C.ar    
  29 N29            7.0820    -7.8514    -5.9443 N.am    
  30 C30            7.0489    -6.8568    -5.0374 C.2     
  31 C31            7.8285    -9.7196    -3.0151 C.ar    
  32 C32            7.9778   -11.0237    -3.4443 C.ar    
  33 C33            7.8284   -11.3392    -4.7840 C.ar    
  34 C34            7.5287   -10.3525    -5.7026 C.ar    
  35 O35            6.8178    -5.6884    -5.2868 O.2     
  36 N36           -1.1911    -0.7043     0.0101 N.pl3   
  37 C37           -1.1808    -2.1692     0.0022 C.3     
  38 C38           -1.2612     2.1120     0.0195 C.1     
  39 N39           -2.2483     2.6743     0.0273 N.1     
  40 H40            1.2133     3.1797     0.0072 H       
  41 H41            3.1763     3.3606    -1.6529 H       
  42 H42            5.3550     4.5028    -1.6609 H       
  43 H43            7.0949     3.8539    -0.0471 H       
  44 H44            6.6662     2.0612     1.5824 H       
  45 H45            4.4915     0.9116     1.6091 H       
  46 H46            2.7841    -2.4055     1.1928 H       
  47 H47            4.8697    -3.7091     1.1589 H       
  48 H48            6.7081    -0.7384    -1.2900 H       
  49 H49            4.6294     0.5766    -1.2734 H       
  50 H50            8.0394    -2.4304    -0.1775 H       
  51 H51            7.2725    -3.6696     0.8445 H       
  52 H52            9.2451    -3.8854    -1.4981 H       
  53 H53            8.7066    -5.2971    -0.5576 H       
  54 H54            8.2550    -4.8632    -3.5455 H       
  55 H55            9.4363    -5.9814    -2.8210 H       
  56 H56            7.6104    -7.2392    -1.7386 H       
  57 H57            5.7791    -5.2638    -3.1773 H       
  58 H58            5.2574    -6.6575    -2.1995 H       
  59 H59            6.3508    -5.6783    -0.2073 H       
  60 H60            5.1593    -4.5465    -0.8905 H       
  61 H61            6.9237    -7.7568    -6.8966 H       
  62 H62            7.9462    -9.4771    -1.9693 H       
  63 H63            8.2126   -11.8007    -2.7319 H       
  64 H64            7.9467   -12.3614    -5.1121 H       
  65 H65            7.4125   -10.6025    -6.7469 H       
  66 H66           -2.0345    -0.2252     0.0211 H       
  67 H67           -2.2058    -2.5398     0.0103 H       
  68 H68           -0.6733    -2.5241    -0.8948 H       
  69 H69           -0.6556    -2.5337     0.8850 H       
@<TRIPOS>BOND
   1    1    2 ar
   2    1    3 ar
   3    1   38 1
   4    2   36 1
   5    2    6 ar
   6    3    4 ar
   7    3   40 1
   8    4    5 ar
   9    4    8 1
  10    5    6 ar
  11    5    7 1
  12    7   14 ar
  13    7   18 ar
  14    8    9 ar
  15    8   13 ar
  16    9   10 ar
  17    9   41 1
  18   10   11 ar
  19   10   42 1
  20   11   12 ar
  21   11   43 1
  22   12   13 ar
  23   12   44 1
  24   13   45 1
  25   14   15 ar
  26   14   46 1
  27   15   16 ar
  28   15   47 1
  29   16   17 ar
  30   16   19 1
  31   17   18 ar
  32   17   48 1
  33   18   49 1
  34   19   20 1
  35   19   50 1
  36   19   51 1
  37   20   21 1
  38   20   25 1
  39   21   22 1
  40   21   52 1
  41   21   53 1
  42   22   23 1
  43   22   54 1
  44   22   55 1
  45   23   24 1
  46   23   26 1
  47   23   56 1
  48   24   25 1
  49   24   57 1
  50   24   58 1
  51   25   59 1
  52   25   60 1
  53   26   27 1
  54   26   30 am
  55   27   28 ar
  56   27   31 ar
  57   28   29 1
  58   28   34 ar
  59   29   30 am
  60   29   61 1
  61   30   35 2
  62   31   32 ar
  63   31   62 1
  64   32   33 ar
  65   32   63 1
  66   33   34 ar
  67   33   64 1
  68   34   65 1
  69   36   37 1
  70   36   66 1
  71   37   67 1
  72   37   68 1
  73   37   69 1
  74   38   39 3

#	End of record

