#	Name: ASD01911337
#	Creating user name:	WinNT
#	Creation time:	15. 06. 2019 19:57

#	Modifying user name:	WinNT
#	Modification time:	15. 06. 2019 19:57

#	Program:	/corina/corina34_cracker 3.40 0067  02.08.2006

@<TRIPOS>MOLECULE
ASD01911337
  39   41    0    0    0
SMALL
NO_CHARGES


@<TRIPOS>ATOM
   1 C1            -0.0167     1.3835     0.0096 C.ar    
   2 C2             0.0021    -0.0041     0.0020 C.ar    
   3 C3             1.2167    -0.6677    -0.0131 C.ar    
   4 N4             2.3518    -0.0012    -0.0204 N.ar    
   5 C5             2.3789     1.3283    -0.0135 C.ar    
   6 C6             1.1898     2.0611     0.0018 C.ar    
   7 C7             3.6362     2.0136    -0.0218 C.1     
   8 C8             4.6670     2.5755    -0.0287 C.1     
   9 C9             5.9243     3.2609    -0.0370 C.ar    
  10 N10            5.9477     4.5916    -0.0301 N.ar    
  11 C11            7.0794     5.2607    -0.0373 C.ar    
  12 C12            8.3036     4.5875    -0.0526 C.ar    
  13 C13            8.3121     3.1851    -0.0602 C.ar    
  14 C14            7.1130     2.5236    -0.0466 C.ar    
  15 C15            9.5723     5.3429    -0.0611 C.2     
  16 N16            9.5542     6.6905    -0.0542 N.am    
  17 O17           10.6332     4.7493    -0.0744 O.2     
  18 C18           10.8129     7.4401    -0.0626 C.3     
  19 C19           10.5896     8.8385    -0.6644 C.3     
  20 C20           10.9578     9.8555     0.4355 C.3     
  21 C21           11.9232     9.0779     1.3641 C.3     
  22 C22           11.3091     7.6560     1.3820 C.3     
  23 H23           -0.9525     1.9227     0.0170 H       
  24 H24           -0.9230    -0.5614     0.0082 H       
  25 H25            1.2333    -1.7475    -0.0187 H       
  26 H26            1.2118     3.1408     0.0077 H       
  27 H27            7.0626     6.3406    -0.0317 H       
  28 H28            9.2437     2.6388    -0.0724 H       
  29 H29            7.0854     1.4440    -0.0516 H       
  30 H30            8.7077     7.1642    -0.0435 H       
  31 H31           11.5643     6.9009    -0.6396 H       
  32 H32           11.2332     8.9784    -1.5329 H       
  33 H33            9.5447     8.9596    -0.9502 H       
  34 H34           11.4594    10.7210     0.0025 H       
  35 H35           10.0674    10.1641     0.9833 H       
  36 H36           12.9297     9.0587     0.9460 H       
  37 H37           11.9278     9.5093     2.3651 H       
  38 H38           10.4754     7.6094     2.0827 H       
  39 H39           12.0670     6.9163     1.6396 H       
@<TRIPOS>BOND
   1    1    2 ar
   2    1    6 ar
   3    1   23 1
   4    2    3 ar
   5    2   24 1
   6    3    4 ar
   7    3   25 1
   8    4    5 ar
   9    5    6 ar
  10    5    7 1
  11    6   26 1
  12    7    8 3
  13    8    9 1
  14    9   10 ar
  15    9   14 ar
  16   10   11 ar
  17   11   12 ar
  18   11   27 1
  19   12   13 ar
  20   12   15 1
  21   13   14 ar
  22   13   28 1
  23   14   29 1
  24   15   16 am
  25   15   17 2
  26   16   18 1
  27   16   30 1
  28   18   19 1
  29   18   22 1
  30   18   31 1
  31   19   20 1
  32   19   32 1
  33   19   33 1
  34   20   21 1
  35   20   34 1
  36   20   35 1
  37   21   22 1
  38   21   36 1
  39   21   37 1
  40   22   38 1
  41   22   39 1

#	End of record

