#	Name: ASD01916654
#	Creating user name:	WinNT
#	Creation time:	15. 06. 2019 20:07

#	Modifying user name:	WinNT
#	Modification time:	15. 06. 2019 20:07

#	Program:	/corina/corina34_cracker 3.40 0067  02.08.2006

@<TRIPOS>MOLECULE
ASD01916654
  31   32    0    0    0
SMALL
NO_CHARGES


@<TRIPOS>ATOM
   1 C1            -0.0168     1.3912     0.0097 C.ar    
   2 C2             0.0021    -0.0041     0.0020 C.ar    
   3 C3             1.2204    -0.6594    -0.0131 C.ar    
   4 C4             2.3820     0.1007    -0.0201 C.ar    
   5 C5             2.2905     1.4803    -0.0118 C.ar    
   6 N6             1.1180     2.0808     0.0026 N.ar    
   7 C7            -1.2697     2.0847     0.0194 C.1     
   8 C8            -2.2967     2.6533     0.0273 C.1     
   9 C9            -3.5846     3.3662     0.0372 C.3     
  10 C10           -3.3321     4.8752     0.0443 C.3     
  11 C11           -4.6199     5.5881     0.0542 C.1     
  12 C12           -5.6470     6.1567     0.0621 C.1     
  13 C13           -6.8998     6.8503     0.0718 C.ar    
  14 C14           -6.9277     8.2455     0.0795 C.ar    
  15 C15           -8.1371     8.9086     0.0883 C.ar    
  16 C16           -9.3230     8.1918     0.0895 C.ar    
  17 C17           -9.3010     6.8062     0.0819 C.ar    
  18 C18           -8.0970     6.1333     0.0677 C.ar    
  19 F19          -10.5050     8.8461     0.0987 F       
  20 H20           -0.9212    -0.5644     0.0082 H       
  21 H21            1.2668    -1.7384    -0.0190 H       
  22 H22            3.3484    -0.3812    -0.0315 H       
  23 H23            3.1928     2.0739    -0.0172 H       
  24 H24           -4.1555     3.0975    -0.8515 H       
  25 H25           -4.1471     3.0878     0.9284 H       
  26 H26           -2.7611     5.1440     0.9330 H       
  27 H27           -2.7695     5.1536    -0.8469 H       
  28 H28           -6.0040     8.8050     0.0789 H       
  29 H29           -8.1598     9.9883     0.0947 H       
  30 H30          -10.2281     6.2523     0.0832 H       
  31 H31           -8.0809     5.0535     0.0573 H       
@<TRIPOS>BOND
   1    1    2 ar
   2    1    6 ar
   3    1    7 1
   4    2    3 ar
   5    2   20 1
   6    3    4 ar
   7    3   21 1
   8    4    5 ar
   9    4   22 1
  10    5    6 ar
  11    5   23 1
  12    7    8 3
  13    8    9 1
  14    9   10 1
  15    9   24 1
  16    9   25 1
  17   10   11 1
  18   10   26 1
  19   10   27 1
  20   11   12 3
  21   12   13 1
  22   13   14 ar
  23   13   18 ar
  24   14   15 ar
  25   14   28 1
  26   15   16 ar
  27   15   29 1
  28   16   17 ar
  29   16   19 1
  30   17   18 ar
  31   17   30 1
  32   18   31 1

#	End of record

