#	Name: ASD05790077
#	Creating user name:	WinNT
#	Creation time:	15. 06. 2019 21:03

#	Modifying user name:	WinNT
#	Modification time:	15. 06. 2019 21:03

#	Program:	/corina/corina34_cracker 3.40 0067  02.08.2006

@<TRIPOS>MOLECULE
ASD05790077
  76   81    0    0    0
SMALL
NO_CHARGES


@<TRIPOS>ATOM
   1 C1            -0.0077     1.4967     0.0278 C.3     
   2 C2             0.0127    -0.0331    -0.0166 C.3     
   3 C3             0.7124    -0.4938    -1.2961 C.3     
   4 C4             2.1533     0.0248    -1.3128 C.3     
   5 C5             2.1378     1.5615    -1.2553 C.3     
   6 C6             1.4291     2.0209     0.0168 C.3     
   7 C7             2.8389    -0.4644    -2.5894 C.3     
   8 C8             2.1615     0.1223    -3.8393 C.3     
   9 C9             2.2371     1.6336    -3.7274 C.3     
  10 C10            1.4052     2.0481    -2.4862 C.3     
  11 C11            1.5372     2.4222    -4.8393 C.3     
  12 C12            1.1944     3.7612    -4.1922 C.2     
  13 C13            1.2641     3.5512    -2.6750 C.3     
  14 C14            2.4944     2.6093    -6.0021 C.3     
  15 C15            1.9091     3.3419    -7.1605 C.3     
  16 C16            1.8607     4.8438    -7.0209 C.3     
  17 C17            0.7006     5.3058    -6.1569 C.3     
  18 C18            0.8477     4.8453    -4.7508 C.2     
  19 C19            1.6994     5.4718    -8.4370 C.3     
  20 C20            2.6335     6.6891    -8.3348 C.3     
  21 C21            3.7741     6.0635    -7.4856 C.3     
  22 O22            3.1054     5.3332    -6.4754 O.3     
  23 N23            3.2352     7.1167    -9.5927 N.3     
  24 C24            4.1794     8.2174    -9.3192 C.3     
  25 C25            5.2872     7.7865    -8.3624 C.3     
  26 C26            4.7020     7.1862    -7.0713 C.3     
  27 C27            3.5739     2.0893    -1.2612 C.3     
  28 C28            0.5026     5.9215    -3.7539 C.3     
  29 C29            6.1446     9.0027    -8.0069 C.3     
  30 C30            2.1730     4.5052    -9.5243 C.3     
  31 O31            0.7194    -0.5337     1.1200 O.3     
  32 H32           -0.5413     1.8789    -0.8424 H       
  33 H33           -0.5090     1.8277     0.9373 H       
  34 H34           -1.0097    -0.4109    -0.0050 H       
  35 H35            0.7187    -1.5831    -1.3337 H       
  36 H36            0.1771    -0.1049    -2.1623 H       
  37 H37            2.6883    -0.3647    -0.4466 H       
  38 H38            1.4176     3.1103     0.0518 H       
  39 H39            1.9616     1.6371     0.8870 H       
  40 H40            3.8853    -0.1594    -2.5730 H       
  41 H41            2.7848    -1.5523    -2.6304 H       
  42 H42            2.6858    -0.2097    -4.7354 H       
  43 H43            1.1194    -0.1947    -3.8795 H       
  44 H44            3.2731     1.9535    -3.6154 H       
  45 H45            0.4200     1.5841    -2.5339 H       
  46 H46            0.6296     1.9092    -5.1572 H       
  47 H47            0.3492     3.9074    -2.2016 H       
  48 H48            2.1304     4.0672    -2.2613 H       
  49 H49            3.3664     3.1593    -5.6485 H       
  50 H50            2.8225     1.6272    -6.3427 H       
  51 H51            2.4929     3.0997    -8.0486 H       
  52 H52            0.8928     2.9800    -7.3159 H       
  53 H53            0.6574     6.3949    -6.1719 H       
  54 H54           -0.2282     4.9084    -6.5661 H       
  55 H55            0.6693     5.7815    -8.6130 H       
  56 H56            2.1523     7.5160    -7.8126 H       
  57 H57            4.3371     5.3698    -8.1101 H       
  58 H58            3.6998     6.3474   -10.0513 H       
  59 H59            4.6273     8.5430   -10.2581 H       
  60 H60            3.6341     9.0522    -8.8788 H       
  61 H61            5.9126     7.0401    -8.8523 H       
  62 H62            4.1440     7.9479    -6.5267 H       
  63 H63            5.5045     6.7939    -6.4466 H       
  64 H64            4.1104     1.6730    -2.1138 H       
  65 H65            3.5610     3.1767    -1.3356 H       
  66 H66            4.0732     1.7941    -0.3384 H       
  67 H67            0.2123     6.8285    -4.2842 H       
  68 H68           -0.3245     5.5857    -3.1285 H       
  69 H69            1.3706     6.1287    -3.1280 H       
  70 H70            5.5219     9.7591    -7.5292 H       
  71 H71            6.9380     8.7006    -7.3232 H       
  72 H72            6.5847     9.4150    -8.9148 H       
  73 H73            1.5827     3.5900    -9.4791 H       
  74 H74            2.0489     4.9697   -10.5025 H       
  75 H75            3.2249     4.2672    -9.3658 H       
  76 H76            0.3315    -0.2781     1.9682 H       
@<TRIPOS>BOND
   1    1    2 1
   2    1    6 1
   3    1   32 1
   4    1   33 1
   5    2    3 1
   6    2   31 1
   7    2   34 1
   8    3    4 1
   9    3   35 1
  10    3   36 1
  11    4    5 1
  12    4    7 1
  13    4   37 1
  14    5    6 1
  15    5   27 1
  16    5   10 1
  17    6   38 1
  18    6   39 1
  19    7    8 1
  20    7   40 1
  21    7   41 1
  22    8    9 1
  23    8   42 1
  24    8   43 1
  25    9   10 1
  26    9   11 1
  27    9   44 1
  28   10   13 1
  29   10   45 1
  30   11   12 1
  31   11   14 1
  32   11   46 1
  33   12   13 1
  34   12   18 2
  35   13   47 1
  36   13   48 1
  37   14   15 1
  38   14   49 1
  39   14   50 1
  40   15   16 1
  41   15   51 1
  42   15   52 1
  43   16   17 1
  44   16   22 1
  45   16   19 1
  46   17   18 1
  47   17   53 1
  48   17   54 1
  49   18   28 1
  50   19   30 1
  51   19   20 1
  52   19   55 1
  53   20   21 1
  54   20   23 1
  55   20   56 1
  56   21   22 1
  57   21   26 1
  58   21   57 1
  59   23   24 1
  60   23   58 1
  61   24   25 1
  62   24   59 1
  63   24   60 1
  64   25   26 1
  65   25   29 1
  66   25   61 1
  67   26   62 1
  68   26   63 1
  69   27   64 1
  70   27   65 1
  71   27   66 1
  72   28   67 1
  73   28   68 1
  74   28   69 1
  75   29   70 1
  76   29   71 1
  77   29   72 1
  78   30   73 1
  79   30   74 1
  80   30   75 1
  81   31   76 1

#	End of record

