#	Name: ASD08151067
#	Creating user name:	WinNT
#	Creation time:	15. 06. 2019 21:17

#	Modifying user name:	WinNT
#	Modification time:	15. 06. 2019 21:17

#	Program:	/corina/corina34_cracker 3.40 0067  02.08.2006

@<TRIPOS>MOLECULE
ASD08151067
  34   36    0    0    0
SMALL
NO_CHARGES


@<TRIPOS>ATOM
   1 N1            -0.5920     1.7787    -0.8511 N.ar    
   2 N2            -0.7589     0.5236    -1.0707 N.ar    
   3 C3             0.2164    -0.3681    -0.9659 C.ar    
   4 C4             1.4790     0.0164    -0.6093 C.ar    
   5 C5             1.6962     1.3848    -0.3614 C.ar    
   6 C6             2.9540     1.8847     0.0102 C.ar    
   7 C7             3.1133     3.2202     0.2390 C.ar    
   8 C8             2.0464     4.1024     0.1104 C.ar    
   9 C9             0.7907     3.6494    -0.2539 C.ar    
  10 C10            0.5962     2.2694    -0.4974 C.ar    
  11 C11           -0.3381     4.5995    -0.3875 C.ar    
  12 C12           -0.3452     5.5365    -1.4201 C.ar    
  13 C13           -1.4007     6.4209    -1.5405 C.ar    
  14 C14           -2.4501     6.3776    -0.6372 C.ar    
  15 C15           -2.4474     5.4489     0.3906 C.ar    
  16 C16           -1.3997     4.5559     0.5155 C.ar    
  17 F17           -3.4732     5.4121     1.2689 F       
  18 F18           -1.4088     7.3292    -2.5406 F       
  19 Cl19           4.3037     0.8060     0.1788 Cl      
  20 C20            2.2602     5.5711     0.3718 C.3     
  21 C21            1.9086     5.8866     1.8271 C.3     
  22 N22            3.6631     5.9121     0.1234 N.2     
  23 N23            4.0004     6.9826     0.1836 N.1     
  24 N24            4.3377     8.0531     0.2439 N.pl3   
  25 H25            0.0112    -1.4098    -1.1642 H       
  26 H26            2.2796    -0.7030    -0.5207 H       
  27 H27            4.0837     3.5982     0.5250 H       
  28 H28            0.4728     5.5715    -2.1244 H       
  29 H29           -3.2728     7.0705    -0.7344 H       
  30 H30           -1.4009     3.8290     1.3143 H       
  31 H31            1.6215     6.1548    -0.2910 H       
  32 H32            2.6056     5.3725     2.4889 H       
  33 H33            1.9764     6.9618     1.9923 H       
  34 H34            0.8932     5.5501     2.0367 H       
@<TRIPOS>BOND
   1    1    2 ar
   2    1   10 ar
   3    2    3 ar
   4    3    4 ar
   5    3   25 1
   6    4    5 ar
   7    4   26 1
   8    5    6 ar
   9    5   10 ar
  10    6    7 ar
  11    6   19 1
  12    7    8 ar
  13    7   27 1
  14    8    9 ar
  15    8   20 1
  16    9   10 ar
  17    9   11 1
  18   11   12 ar
  19   11   16 ar
  20   12   13 ar
  21   12   28 1
  22   13   14 ar
  23   13   18 1
  24   14   15 ar
  25   14   29 1
  26   15   16 ar
  27   15   17 1
  28   16   30 1
  29   20   21 1
  30   20   22 1
  31   20   31 1
  32   21   32 1
  33   21   33 1
  34   21   34 1
  35   22   23 2
  36   23   24 2

#	End of record

