#	Name: ASD05420027
#	Creating user name:	WinNT
#	Creation time:	15. 06. 2019 20:59

#	Modifying user name:	WinNT
#	Modification time:	15. 06. 2019 20:59

#	Program:	/corina/corina34_cracker 3.40 0067  02.08.2006

@<TRIPOS>MOLECULE
ASD05420027
  40   41    0    0    0
SMALL
NO_CHARGES


@<TRIPOS>ATOM
   1 C1            -0.1031     1.2033    -0.5877 C.2     
   2 N2             0.0021    -0.0041     0.0020 N.am    
   3 O3             0.8582     1.6913    -1.1486 O.2     
   4 O4            -1.2748     1.8664    -0.5600 O.3     
   5 C5             1.1963    -0.7356    -0.1037 C.ar    
   6 C6             1.1745    -2.1256     0.0030 C.ar    
   7 C7             2.3558    -2.8453    -0.1024 C.ar    
   8 C8             3.5568    -2.1786    -0.3139 C.ar    
   9 C9             3.5738    -0.7946    -0.4190 C.ar    
  10 C10            2.3964    -0.0764    -0.3199 C.ar    
  11 N11            4.7505    -2.9035    -0.4205 N.pl3   
  12 C12            6.0166    -2.2010    -0.6434 C.3     
  13 C13            7.1401    -3.2025    -0.7199 C.ar    
  14 C14            7.4959    -3.7501    -1.9384 C.ar    
  15 C15            8.5265    -4.6684    -2.0092 C.ar    
  16 C16            9.2019    -5.0395    -0.8605 C.ar    
  17 C17            8.8456    -4.4913     0.3585 C.ar    
  18 C18            7.8183    -3.5692     0.4275 C.ar    
  19 Br19          10.6116    -6.2962    -0.9565 Br      
  20 F20            2.3389    -4.1922     0.0009 F       
  21 N21           -0.0379    -2.7942     0.2166 N.pl3   
  22 C22           -1.3150     3.1614    -1.2154 C.3     
  23 C23           -2.7175     3.7579    -1.0807 C.3     
  24 H24           -0.7471    -0.3678     0.4994 H       
  25 H25            4.5080    -0.2780    -0.5826 H       
  26 H26            2.4123     0.9999    -0.4069 H       
  27 H27            4.7389    -3.8706    -0.3468 H       
  28 H28            5.9629    -1.6431    -1.5783 H       
  29 H29            6.1998    -1.5118     0.1810 H       
  30 H30            6.9682    -3.4605    -2.8352 H       
  31 H31            8.8041    -5.0963    -2.9611 H       
  32 H32            9.3725    -4.7810     1.2557 H       
  33 H33            7.5427    -3.1380     1.3786 H       
  34 H34           -0.8633    -2.2900     0.2904 H       
  35 H35           -0.0520    -3.7612     0.2907 H       
  36 H36           -0.5903     3.8279    -0.7479 H       
  37 H37           -1.0708     3.0422    -2.2710 H       
  38 H38           -2.7476     4.7301    -1.5727 H       
  39 H39           -3.4422     3.0914    -1.5483 H       
  40 H40           -2.9617     3.8772    -0.0251 H       
@<TRIPOS>BOND
   1    1    2 am
   2    1    3 2
   3    1    4 1
   4    2    5 1
   5    2   24 1
   6    4   22 1
   7    5    6 ar
   8    5   10 ar
   9    6    7 ar
  10    6   21 1
  11    7    8 ar
  12    7   20 1
  13    8    9 ar
  14    8   11 1
  15    9   10 ar
  16    9   25 1
  17   10   26 1
  18   11   12 1
  19   11   27 1
  20   12   13 1
  21   12   28 1
  22   12   29 1
  23   13   14 ar
  24   13   18 ar
  25   14   15 ar
  26   14   30 1
  27   15   16 ar
  28   15   31 1
  29   16   17 ar
  30   16   19 1
  31   17   18 ar
  32   17   32 1
  33   18   33 1
  34   21   34 1
  35   21   35 1
  36   22   23 1
  37   22   36 1
  38   22   37 1
  39   23   38 1
  40   23   39 1
  41   23   40 1

#	End of record

