#	Name: ASD00069279
#	Creating user name:	WinNT
#	Creation time:	15. 06. 2019 18:29

#	Modifying user name:	WinNT
#	Modification time:	15. 06. 2019 18:29

#	Program:	/corina/corina34_cracker 3.40 0067  02.08.2006

@<TRIPOS>MOLECULE
ASD00069279
  97  101    0    0    0
SMALL
NO_CHARGES


@<TRIPOS>ATOM
   1 C1             6.9394    -0.1890     0.6941 C.2     
   2 N2             6.0209    -0.8940     1.3838 N.am    
   3 O3             6.7203     0.1313    -0.4574 O.2     
   4 O4             8.0973     0.1652     1.2827 O.3     
   5 N5             2.9177    -2.8894     0.8055 N.3     
   6 C6             4.1937    -2.5202     1.4314 C.3     
   7 C7             4.7584    -1.2742     0.7453 C.3     
   8 C8             3.7535    -0.1262     0.8756 C.3     
   9 C9             2.4188    -0.5542     0.2592 C.3     
  10 C10            1.9220    -1.8211     0.9594 C.3     
  11 C11            2.4380    -4.1007     1.3202 C.ar    
  12 C12            2.3164    -5.2141     0.4899 C.ar    
  13 C13            1.8406    -6.4108     1.0057 C.ar    
  14 C14            1.4878    -6.4978     2.3394 C.ar    
  15 C15            1.6073    -5.3944     3.1641 C.ar    
  16 C16            2.0874    -4.1978     2.6602 C.ar    
  17 F17            2.2086    -3.1234     3.4702 F       
  18 C18            2.9227    -6.2447    -1.5681 C.2     
  19 O19            2.9364    -7.3255    -1.0102 O.2     
  20 N20            2.6733    -5.1246    -0.8614 N.am    
  21 C21            3.1788    -6.1601    -3.0167 C.2     
  22 N22            3.1917    -5.0554    -3.7317 N.2     
  23 C23            3.4578    -5.3633    -5.0059 C.2     
  24 C24            3.6177    -6.7174    -5.0899 C.2     
  25 N25            3.4486    -7.2151    -3.8425 N.pl3   
  26 C26            3.5358    -8.6241    -3.4508 C.3     
  27 O27            3.8354    -9.4201    -4.5991 O.3     
  28 C28            3.9429   -10.8185    -4.3250 C.3     
  29 C29            4.2640   -11.5686    -5.6193 C.3     
  30 Si30           4.4041   -13.3917    -5.2620 Si      
  31 C31            2.7914   -14.0140    -4.5672 C.3     
  32 C32            4.7951   -14.3051    -6.8379 C.3     
  33 C33            5.7659   -13.6789    -4.0235 C.3     
  34 N34            3.6313    -2.5409    -7.2860 N.pl3   
  35 N35            3.7831    -3.6128    -8.1739 N.2     
  36 C36            3.7417    -4.7263    -7.4909 C.2     
  37 C37            3.5606    -4.4008    -6.1332 C.2     
  38 C38            3.4963    -3.0419    -6.0404 C.2     
  39 C39            3.6263    -1.1208    -7.6462 C.3     
  40 C40            4.8851    -0.7909    -8.4061 C.ar    
  41 C41            4.9101    -0.9026    -9.7837 C.ar    
  42 C42            6.0648    -0.6000   -10.4808 C.ar    
  43 C43            7.1944    -0.1853    -9.8004 C.ar    
  44 C44            7.1691    -0.0728    -8.4228 C.ar    
  45 C45            6.0131    -0.3712    -7.7261 C.ar    
  46 C46            9.0399     0.9236     0.4797 C.3     
  47 C47            8.3893     2.2336     0.0310 C.3     
  48 C48           10.2862     1.2320     1.3119 C.3     
  49 C49            9.4375     0.1043    -0.7497 C.3     
  50 H50            6.1958    -1.1496     2.3031 H       
  51 H51            4.0324    -2.3109     2.4889 H       
  52 H52            4.9006    -3.3435     1.3281 H       
  53 H53            4.9330    -1.4871    -0.3093 H       
  54 H54            3.6082     0.1129     1.9291 H       
  55 H55            4.1325     0.7508     0.3510 H       
  56 H56            1.6867     0.2431     0.3869 H       
  57 H57            2.5566    -0.7558    -0.8031 H       
  58 H58            0.9789    -2.1366     0.5132 H       
  59 H59            1.7713    -1.6150     2.0191 H       
  60 H60            1.7454    -7.2749     0.3648 H       
  61 H61            1.1174    -7.4304     2.7385 H       
  62 H62            1.3296    -5.4676     4.2053 H       
  63 H63            2.7409    -4.2564    -1.2886 H       
  64 H64            3.8414    -7.2833    -5.9822 H       
  65 H65            4.3241    -8.7466    -2.7080 H       
  66 H66            2.5838    -8.9427    -3.0262 H       
  67 H67            4.7396   -10.9865    -3.6004 H       
  68 H68            2.9993   -11.1826    -3.9186 H       
  69 H69            3.4672   -11.4006    -6.3439 H       
  70 H70            5.2075   -11.2045    -6.0258 H       
  71 H71            1.9947   -13.8460    -5.2918 H       
  72 H72            2.8734   -15.0807    -4.3582 H       
  73 H73            2.5627   -13.4796    -3.6452 H       
  74 H74            5.7386   -13.9409    -7.2444 H       
  75 H75            4.8771   -15.3717    -6.6289 H       
  76 H76            3.9983   -14.1370    -7.5625 H       
  77 H77            5.5371   -13.1444    -3.1015 H       
  78 H78            5.8479   -14.7455    -3.8145 H       
  79 H79            6.7094   -13.3147    -4.4300 H       
  80 H80            3.8305    -5.7230    -7.8974 H       
  81 H81            3.3617    -2.4701    -5.1341 H       
  82 H82            2.7585    -0.9074    -8.2704 H       
  83 H83            3.5798    -0.5164    -6.7403 H       
  84 H84            4.0276    -1.2265   -10.3154 H       
  85 H85            6.0846    -0.6879   -11.5571 H       
  86 H86            8.0968     0.0504   -10.3449 H       
  87 H87            8.0517     0.2509    -7.8912 H       
  88 H88            5.9922    -0.2798    -6.6502 H       
  89 H89            8.1060     2.8174     0.9068 H       
  90 H90            9.0969     2.8029    -0.5718 H       
  91 H91            7.5014     2.0139    -0.5619 H       
  92 H92           10.7497     0.2987     1.6316 H       
  93 H93           10.9938     1.8013     0.7092 H       
  94 H94           10.0030     1.8158     2.1878 H       
  95 H95            8.5496    -0.1155    -1.3425 H       
  96 H96           10.1451     0.6736    -1.3524 H       
  97 H97            9.9010    -0.8290    -0.4300 H       
@<TRIPOS>BOND
   1    1    2 am
   2    1    3 2
   3    1    4 1
   4    2    7 1
   5    2   50 1
   6    4   46 1
   7    5    6 1
   8    5   10 1
   9    5   11 1
  10    6    7 1
  11    6   51 1
  12    6   52 1
  13    7    8 1
  14    7   53 1
  15    8    9 1
  16    8   54 1
  17    8   55 1
  18    9   10 1
  19    9   56 1
  20    9   57 1
  21   10   58 1
  22   10   59 1
  23   11   12 ar
  24   11   16 ar
  25   12   13 ar
  26   12   20 1
  27   13   14 ar
  28   13   60 1
  29   14   15 ar
  30   14   61 1
  31   15   16 ar
  32   15   62 1
  33   16   17 1
  34   18   19 2
  35   18   20 am
  36   18   21 1
  37   20   63 1
  38   21   22 2
  39   21   25 1
  40   22   23 1
  41   23   24 2
  42   23   37 1
  43   24   25 1
  44   24   64 1
  45   25   26 1
  46   26   27 1
  47   26   65 1
  48   26   66 1
  49   27   28 1
  50   28   29 1
  51   28   67 1
  52   28   68 1
  53   29   30 1
  54   29   69 1
  55   29   70 1
  56   30   31 1
  57   30   32 1
  58   30   33 1
  59   31   71 1
  60   31   72 1
  61   31   73 1
  62   32   74 1
  63   32   75 1
  64   32   76 1
  65   33   77 1
  66   33   78 1
  67   33   79 1
  68   34   35 1
  69   34   38 1
  70   34   39 1
  71   35   36 2
  72   36   37 1
  73   36   80 1
  74   37   38 2
  75   38   81 1
  76   39   40 1
  77   39   82 1
  78   39   83 1
  79   40   41 ar
  80   40   45 ar
  81   41   42 ar
  82   41   84 1
  83   42   43 ar
  84   42   85 1
  85   43   44 ar
  86   43   86 1
  87   44   45 ar
  88   44   87 1
  89   45   88 1
  90   46   47 1
  91   46   49 1
  92   46   48 1
  93   47   89 1
  94   47   90 1
  95   47   91 1
  96   48   92 1
  97   48   93 1
  98   48   94 1
  99   49   95 1
 100   49   96 1
 101   49   97 1

#	End of record

