#	Name: ASD01882620
#	Creating user name:	WinNT
#	Creation time:	15. 06. 2019 19:44

#	Modifying user name:	WinNT
#	Modification time:	15. 06. 2019 19:44

#	Program:	/corina/corina34_cracker 3.40 0067  02.08.2006

@<TRIPOS>MOLECULE
ASD01882620
  28   29    0    0    0
SMALL
NO_CHARGES


@<TRIPOS>ATOM
   1 C1            -0.0167     1.3833     0.0096 C.ar    
   2 C2             0.0021    -0.0041     0.0020 C.ar    
   3 C3             1.2270    -0.6629    -0.0132 C.ar    
   4 C4             2.3845     0.0990    -0.0201 C.ar    
   5 C5             2.2850     1.4775    -0.0118 C.ar    
   6 N6             1.1076     2.0712     0.0026 N.ar    
   7 O7            -1.1598    -0.7092     0.0097 O.3     
   8 C8             3.5390     2.3134    -0.0187 C.3     
   9 C9             4.0462     2.4839     1.4146 C.3     
  10 C10            5.3193     3.3325     1.4076 C.3     
  11 C11            6.3914     2.6366     0.5666 C.3     
  12 C12            5.8842     2.4661    -0.8668 C.3     
  13 C13            4.6111     1.6175    -0.8597 C.3     
  14 H14           -0.9624     1.9049     0.0169 H       
  15 H15            1.2749    -1.7418    -0.0191 H       
  16 H16            3.3530    -0.3787    -0.0316 H       
  17 H17           -1.5048    -0.9085    -0.8714 H       
  18 H18            3.3208     3.2922    -0.4458 H       
  19 H19            3.2824     2.9796     2.0138 H       
  20 H20            4.2644     1.5051     1.8417 H       
  21 H21            5.1011     4.3113     0.9805 H       
  22 H22            5.6806     3.4540     2.4287 H       
  23 H23            7.2983     3.2412     0.5615 H       
  24 H24            6.6096     1.6578     0.9936 H       
  25 H25            5.6660     3.4450    -1.2938 H       
  26 H26            6.6480     1.9704    -1.4659 H       
  27 H27            4.8293     0.6387    -0.4327 H       
  28 H28            4.2497     1.4961    -1.8809 H       
@<TRIPOS>BOND
   1    1    2 ar
   2    1    6 ar
   3    1   14 1
   4    2    3 ar
   5    2    7 1
   6    3    4 ar
   7    3   15 1
   8    4    5 ar
   9    4   16 1
  10    5    6 ar
  11    5    8 1
  12    7   17 1
  13    8    9 1
  14    8   13 1
  15    8   18 1
  16    9   10 1
  17    9   19 1
  18    9   20 1
  19   10   11 1
  20   10   21 1
  21   10   22 1
  22   11   12 1
  23   11   23 1
  24   11   24 1
  25   12   13 1
  26   12   25 1
  27   12   26 1
  28   13   27 1
  29   13   28 1

#	End of record

