#	Name: ASD06600004
#	Creating user name:	WinNT
#	Creation time:	15. 06. 2019 21:06

#	Modifying user name:	WinNT
#	Modification time:	15. 06. 2019 21:06

#	Program:	/corina/corina34_cracker 3.40 0067  02.08.2006

@<TRIPOS>MOLECULE
ASD06600004
 179  178    0    0    0
SMALL
NO_CHARGES


@<TRIPOS>ATOM
   1 C1            -1.6148     0.7449     1.6967 C.2     
   2 O2            -1.6682    -0.4592     1.5614 O.2     
   3 N3             0.7065     0.4392     2.3469 N.3     
   4 C4            -0.2828     1.4233     1.8880 C.3     
   5 C5             0.1771     2.0276     0.5597 C.3     
   6 C6             1.4661     2.8219     0.7799 C.3     
   7 C7             1.9260     3.4261    -0.5483 C.3     
   8 N8             3.1602     4.1867    -0.3375 N.pl3   
   9 C9             3.7642     4.8236    -1.3951 C.2     
  10 N10            3.3119     4.6504    -2.6035 N.2     
  11 N11            4.8513     5.6476    -1.1759 N.am    
  12 C12           -5.0204     1.7981     0.8868 C.2     
  13 O13           -4.6718     2.9352     0.6488 O.2     
  14 N14           -2.7462     1.4768     1.6705 N.am    
  15 C15           -4.0406     0.8179     1.4786 C.3     
  16 C16           -4.5660     0.3231     2.8276 C.3     
  17 C17           -3.6352    -0.7634     3.3700 C.3     
  18 C18           -4.1527    -1.2508     4.6988 C.2     
  19 O19           -5.1662    -0.7759     5.1660 O.2     
  20 N20           -3.4893    -2.2144     5.3680 N.am    
  21 C21           -8.6405     1.9472     0.4016 C.2     
  22 O22           -8.8271     0.9521     1.0692 O.2     
  23 N23           -6.2840     1.4113     0.6220 N.am    
  24 C24           -7.2365     2.3642     0.0468 C.3     
  25 C25           -7.0801     2.3858    -1.4751 C.3     
  26 C26           -5.6236     2.6872    -1.8338 C.3     
  27 O27           -7.4489     1.1131    -2.0100 O.3     
  28 C28          -12.0139     2.8198    -0.7039 C.2     
  29 O29          -11.5989     3.4815    -1.6317 O.2     
  30 N30           -9.6888     2.6802    -0.0231 N.am    
  31 C31          -11.0537     2.2749     0.3219 C.3     
  32 C32          -11.4157     2.8257     1.7026 C.3     
  33 C33          -10.5212     2.1771     2.7610 C.3     
  34 C34          -10.8833     2.7279     4.1417 C.3     
  35 N35          -10.0268     2.1069     5.1552 N.pl3   
  36 C36          -10.1698     2.4486     6.4791 C.2     
  37 N37           -9.4078     1.8961     7.3808 N.2     
  38 N38          -11.1166     3.3731     6.8521 N.pl3   
  39 C39          -15.6354     3.2399    -0.9711 C.2     
  40 O40          -15.8132     2.9270     0.1871 O.2     
  41 N41          -13.3337     2.5717    -0.5902 N.am    
  42 C42          -14.2672     3.1014    -1.5874 C.3     
  43 C43          -14.3389     2.1435    -2.7783 C.3     
  44 O44          -14.9023     0.9000    -2.3561 O.3     
  45 C45          -19.0384     3.7849    -2.1899 C.2     
  46 O46          -18.7062     3.6426    -3.3476 O.2     
  47 N47          -16.6613     3.7116    -1.7069 N.am    
  48 C48          -17.9914     3.8463    -1.1077 C.3     
  49 C49          -18.0890     5.1881    -0.3792 C.3     
  50 O50          -17.9918     6.2530    -1.3271 O.3     
  51 C51          -22.6029     4.5482    -2.4626 C.2     
  52 O52          -22.7801     4.7562    -1.2809 O.2     
  53 N53          -20.3438     3.8881    -1.8711 N.am    
  54 C54          -21.3617     3.8284    -2.9231 C.3     
  55 C55          -21.7010     2.3667    -3.2221 C.3     
  56 C56          -20.4345     1.6284    -3.6599 C.3     
  57 O57          -22.2294     1.7503    -2.0461 O.3     
  58 C58          -25.7723     4.4919    -2.6030 C.2     
  59 O59          -25.4732     3.3302    -2.7473 O.2     
  60 N60          -23.5161     4.9609    -3.3638 N.am    
  61 C61          -24.7679     5.5725    -2.9108 C.3     
  62 C62          -25.3185     6.4822    -4.0108 C.3     
  63 C63          -24.3559     7.6499    -4.2362 C.3     
  64 C64          -24.8981     8.5460    -5.3198 C.2     
  65 O65          -25.9469     8.2781    -5.8566 O.2     
  66 O66          -24.2160     9.6416    -5.6885 O.3     
  67 O67          -26.9992     4.8201    -2.1686 O.3     
  68 C68            5.2429     5.9257     0.0833 C.2     
  69 O69            4.6938     5.3888     1.0216 O.2     
  70 C70           16.0343    14.7961    12.5753 C.3     
  71 C71           14.8968    13.8029    12.3298 C.3     
  72 C72           14.6528    13.6687    10.8253 C.3     
  73 C73           13.5152    12.6754    10.5798 C.3     
  74 C74           13.2712    12.5412     9.0753 C.3     
  75 C75           12.1337    11.5480     8.8297 C.3     
  76 C76           11.8896    11.4138     7.3253 C.3     
  77 C77           10.7521    10.4205     7.0797 C.3     
  78 C78           10.5081    10.2864     5.5753 C.3     
  79 C79            9.3705     9.2931     5.3297 C.3     
  80 C80            9.1265     9.1589     3.8253 C.3     
  81 C81            7.9890     8.1657     3.5797 C.3     
  82 C82            7.7449     8.0315     2.0752 C.3     
  83 C83            6.6074     7.0382     1.8297 C.3     
  84 C84            6.3634     6.9041     0.3252 C.3     
  85 H85            0.4582     0.0727     3.2536 H       
  86 H86            0.8159    -0.3045     1.6738 H       
  87 H87           -0.3812     2.2138     2.6320 H       
  88 H88            0.3610     1.2286    -0.1586 H       
  89 H89           -0.5973     2.6911     0.1749 H       
  90 H90            1.2823     3.6209     1.4982 H       
  91 H91            2.2405     2.1584     1.1648 H       
  92 H92            2.1099     2.6272    -1.2666 H       
  93 H93            1.1516     4.0896    -0.9332 H       
  94 H94            3.5512     4.2408     0.5486 H       
  95 H95            3.6904     5.1555    -3.3401 H       
  96 H96            5.3326     6.0259    -1.9283 H       
  97 H97           -2.7035     2.4398     1.7787 H       
  98 H98           -3.9206    -0.0288     0.8027 H       
  99 H99           -4.6019     1.1551     3.5309 H       
 100 H100          -5.5675    -0.0874     2.6991 H       
 101 H101          -3.5993    -1.5954     2.6668 H       
 102 H102          -2.6337    -0.3529     3.4986 H       
 103 H103          -2.6787    -2.5941     4.9944 H       
 104 H104          -3.8224    -2.5281     6.2233 H       
 105 H105          -6.5627     0.5019     0.8124 H       
 106 H106          -7.0410     3.3593     0.4463 H       
 107 H107          -7.7250     3.1574    -1.8956 H       
 108 H108          -4.9787     1.9156    -1.4133 H       
 109 H109          -5.5122     2.7026    -2.9180 H       
 110 H110          -5.3423     3.6580    -1.4258 H       
 111 H111          -6.9154     0.3777    -1.6788 H       
 112 H112          -9.5395     3.4761    -0.5570 H       
 113 H113         -11.1168     1.1868     0.3368 H       
 114 H114         -11.2671     3.9055     1.7134 H       
 115 H115         -12.4595     2.6003     1.9214 H       
 116 H116         -10.6698     1.0974     2.7502 H       
 117 H117          -9.4775     2.4025     2.5422 H       
 118 H118         -10.7347     3.8077     4.1526 H       
 119 H119         -11.9270     2.5026     4.3606 H       
 120 H120          -9.3587     1.4547     4.8920 H       
 121 H121          -9.5087     2.1372     8.3149 H       
 122 H122         -11.6837     3.7842     6.1811 H       
 123 H123         -11.2176     3.6141     7.7862 H       
 124 H124         -13.6656     2.0424     0.1518 H       
 125 H125         -13.9209     4.0776    -1.9267 H       
 126 H126         -14.9636     2.5793    -3.5580 H       
 127 H127         -13.3356     1.9739    -3.1691 H       
 128 H128         -14.9781     0.2429    -3.0615 H       
 129 H129         -16.5190     3.9618    -2.6332 H       
 130 H130         -18.1541     3.0349    -0.3982 H       
 131 H131         -19.0450     5.2506     0.1407 H       
 132 H132         -17.2767     5.2693     0.3431 H       
 133 H133         -18.0461     7.1351    -0.9347 H       
 134 H134         -20.6095     4.0018    -0.9452 H       
 135 H135         -20.9794     4.3046    -3.8260 H       
 136 H136         -22.4421     2.3217    -4.0201 H       
 137 H137         -19.7461     1.5571    -2.8178 H       
 138 H138         -20.6972     0.6267    -4.0002 H       
 139 H139         -19.9580     2.1752    -4.4735 H       
 140 H140         -23.0349     2.1675    -1.7114 H       
 141 H141         -23.3446     4.8530    -4.3124 H       
 142 H142         -24.5806     6.1609    -2.0126 H       
 143 H143         -25.4222     5.9133    -4.9348 H       
 144 H144         -26.2928     6.8674    -3.7100 H       
 145 H145         -24.2522     8.2188    -3.3123 H       
 146 H146         -23.3816     7.2647    -4.5370 H       
 147 H147         -24.6037    10.1855    -6.3877 H       
 148 H148         -27.6089     4.0925    -1.9844 H       
 149 H149          16.9419    14.4362    12.0907 H       
 150 H150          15.7633    15.7681    12.1631 H       
 151 H151          16.2082    14.8917    13.6471 H       
 152 H152          15.1678    12.8309    12.7420 H       
 153 H153          13.9892    14.1628    12.8144 H       
 154 H154          14.3818    14.6407    10.4131 H       
 155 H155          15.5604    13.3087    10.3407 H       
 156 H156          13.7862    11.7035    10.9920 H       
 157 H157          12.6076    13.0354    11.0644 H       
 158 H158          13.0002    13.5132     8.6631 H       
 159 H159          14.1788    12.1813     8.5907 H       
 160 H160          12.4047    10.5760     9.2420 H       
 161 H161          11.2261    11.9079     9.3143 H       
 162 H162          11.6186    12.3858     6.9131 H       
 163 H163          12.7972    11.0539     6.8407 H       
 164 H164          11.0231     9.4486     7.4920 H       
 165 H165           9.8445    10.7805     7.5643 H       
 166 H166          10.2371    11.2583     5.1630 H       
 167 H167          11.4157     9.9264     5.0907 H       
 168 H168           9.6415     8.3211     5.7419 H       
 169 H169           8.4629     9.6530     5.8143 H       
 170 H170           8.8555    10.1309     3.4130 H       
 171 H171          10.0341     8.7990     3.3407 H       
 172 H172           8.2600     7.1937     3.9919 H       
 173 H173           7.0814     8.5256     4.0643 H       
 174 H174           7.4739     9.0035     1.6630 H       
 175 H175           8.6525     7.6716     1.5906 H       
 176 H176           6.8784     6.0663     2.2419 H       
 177 H177           5.6998     7.3982     2.3143 H       
 178 H178           7.2710     6.5441    -0.1594 H       
 179 H179           6.0924     7.8760    -0.0870 H       
@<TRIPOS>BOND
   1    1    2 2
   2    1    4 1
   3    1   14 am
   4    3    4 1
   5    3   85 1
   6    3   86 1
   7    4    5 1
   8    4   87 1
   9    5    6 1
  10    5   88 1
  11    5   89 1
  12    6    7 1
  13    6   90 1
  14    6   91 1
  15    7    8 1
  16    7   92 1
  17    7   93 1
  18    8    9 1
  19    8   94 1
  20    9   10 2
  21    9   11 1
  22   10   95 1
  23   11   68 am
  24   11   96 1
  25   12   13 2
  26   12   15 1
  27   12   23 am
  28   14   15 1
  29   14   97 1
  30   15   16 1
  31   15   98 1
  32   16   17 1
  33   16   99 1
  34   16  100 1
  35   17   18 1
  36   17  101 1
  37   17  102 1
  38   18   19 2
  39   18   20 am
  40   20  103 1
  41   20  104 1
  42   21   22 2
  43   21   24 1
  44   21   30 am
  45   23   24 1
  46   23  105 1
  47   24   25 1
  48   24  106 1
  49   25   26 1
  50   25   27 1
  51   25  107 1
  52   26  108 1
  53   26  109 1
  54   26  110 1
  55   27  111 1
  56   28   29 2
  57   28   31 1
  58   28   41 am
  59   30   31 1
  60   30  112 1
  61   31   32 1
  62   31  113 1
  63   32   33 1
  64   32  114 1
  65   32  115 1
  66   33   34 1
  67   33  116 1
  68   33  117 1
  69   34   35 1
  70   34  118 1
  71   34  119 1
  72   35   36 1
  73   35  120 1
  74   36   37 2
  75   36   38 1
  76   37  121 1
  77   38  122 1
  78   38  123 1
  79   39   40 2
  80   39   42 1
  81   39   47 am
  82   41   42 1
  83   41  124 1
  84   42   43 1
  85   42  125 1
  86   43   44 1
  87   43  126 1
  88   43  127 1
  89   44  128 1
  90   45   46 2
  91   45   48 1
  92   45   53 am
  93   47   48 1
  94   47  129 1
  95   48   49 1
  96   48  130 1
  97   49   50 1
  98   49  131 1
  99   49  132 1
 100   50  133 1
 101   51   52 2
 102   51   54 1
 103   51   60 am
 104   53   54 1
 105   53  134 1
 106   54   55 1
 107   54  135 1
 108   55   56 1
 109   55   57 1
 110   55  136 1
 111   56  137 1
 112   56  138 1
 113   56  139 1
 114   57  140 1
 115   58   59 2
 116   58   61 1
 117   58   67 1
 118   60   61 1
 119   60  141 1
 120   61   62 1
 121   61  142 1
 122   62   63 1
 123   62  143 1
 124   62  144 1
 125   63   64 1
 126   63  145 1
 127   63  146 1
 128   64   65 2
 129   64   66 1
 130   66  147 1
 131   67  148 1
 132   68   69 2
 133   68   84 1
 134   70   71 1
 135   70  149 1
 136   70  150 1
 137   70  151 1
 138   71   72 1
 139   71  152 1
 140   71  153 1
 141   72   73 1
 142   72  154 1
 143   72  155 1
 144   73   74 1
 145   73  156 1
 146   73  157 1
 147   74   75 1
 148   74  158 1
 149   74  159 1
 150   75   76 1
 151   75  160 1
 152   75  161 1
 153   76   77 1
 154   76  162 1
 155   76  163 1
 156   77   78 1
 157   77  164 1
 158   77  165 1
 159   78   79 1
 160   78  166 1
 161   78  167 1
 162   79   80 1
 163   79  168 1
 164   79  169 1
 165   80   81 1
 166   80  170 1
 167   80  171 1
 168   81   82 1
 169   81  172 1
 170   81  173 1
 171   82   83 1
 172   82  174 1
 173   82  175 1
 174   83   84 1
 175   83  176 1
 176   83  177 1
 177   84  178 1
 178   84  179 1

#	End of record

