#	Name: ASD01812853
#	Creating user name:	WinNT
#	Creation time:	15. 06. 2019 19:29

#	Modifying user name:	WinNT
#	Modification time:	15. 06. 2019 19:29

#	Program:	/corina/corina34_cracker 3.40 0067  02.08.2006

@<TRIPOS>MOLECULE
ASD01812853
  50   54    0    0    0
SMALL
NO_CHARGES


@<TRIPOS>ATOM
   1 N1            -0.0158     1.3146     0.0093 N.ar    
   2 C2             0.0021    -0.0041     0.0020 C.ar    
   3 C3             1.1989    -0.7034    -0.0127 C.ar    
   4 C4             2.3830    -0.0016    -0.0202 C.ar    
   5 C5             2.3451     1.3976    -0.0128 C.ar    
   6 C6             1.0957     2.0332     0.0025 C.ar    
   7 C7             3.8375    -0.3894    -0.0363 C.3     
   8 N8             4.5957     0.8679    -0.0373 N.am    
   9 C9             3.7284     1.8957    -0.0237 C.2     
  10 C10            6.0561     0.9838    -0.0509 C.3     
  11 C11            6.5430     1.0307    -1.4762 C.ar    
  12 C12            6.7672     2.2546    -2.0790 C.ar    
  13 C13            7.2150     2.2927    -3.3887 C.ar    
  14 C14            7.4238     1.0818    -4.0530 C.ar    
  15 C15            7.1749    -0.1099    -3.3759 C.ar    
  16 N16            6.7541    -0.0968    -2.1277 N.ar    
  17 O17            1.0259     3.3855     0.0104 O.3     
  18 O18            4.0434     3.0701    -0.0209 O.2     
  19 C19           -0.2049     3.9605     0.0253 C.ar    
  20 C20           -0.8219     4.2477     1.2382 C.ar    
  21 C21           -2.0720     4.8312     1.2571 C.ar    
  22 C22           -2.7180     5.1341     0.0556 C.ar    
  23 C23           -2.0948     4.8446    -1.1612 C.ar    
  24 C24           -0.8425     4.2658    -1.1725 C.ar    
  25 C25           -4.0157     5.7393     0.0712 C.1     
  26 F26           -0.1966     3.9545     2.3993 F       
  27 N27           -5.0452     6.2195     0.0836 N.1     
  28 F28           -0.2369     3.9906    -2.3484 F       
  29 C29            8.1447    -0.0443    -6.2145 C.2     
  30 C30            7.9030     1.0652    -5.4582 C.2     
  31 C31            8.1907     2.1919    -6.2528 C.2     
  32 N32            8.5846     1.7716    -7.4257 N.2     
  33 N33            8.5643     0.3716    -7.4265 N.pl3   
  34 C34            8.9346    -0.4922    -8.5503 C.3     
  35 H35           -0.9309    -0.5480     0.0080 H       
  36 H36            1.2023    -1.7834    -0.0178 H       
  37 H37            4.0797    -0.9725     0.8521 H       
  38 H38            4.0624    -0.9635    -0.9351 H       
  39 H39            6.3529     1.8971     0.4647 H       
  40 H40            6.4936     0.1227     0.4544 H       
  41 H41            6.5944     3.1711    -1.5343 H       
  42 H42            7.3979     3.2347    -3.8842 H       
  43 H43            7.3321    -1.0533    -3.8777 H       
  44 H44           -2.5508     5.0532     2.1993 H       
  45 H45           -2.5914     5.0770    -2.0917 H       
  46 H46            8.0259    -1.0701    -5.8982 H       
  47 H47            8.1007     3.2236    -5.9464 H       
  48 H48            8.0538    -0.6918    -9.1607 H       
  49 H49            9.6918     0.0050    -9.1566 H       
  50 H50            9.3336    -1.4324    -8.1698 H       
@<TRIPOS>BOND
   1    1    2 ar
   2    1    6 ar
   3    2    3 ar
   4    2   35 1
   5    3    4 ar
   6    3   36 1
   7    4    7 1
   8    4    5 ar
   9    5    6 ar
  10    5    9 1
  11    6   17 1
  12    7    8 1
  13    7   37 1
  14    7   38 1
  15    8    9 am
  16    8   10 1
  17    9   18 2
  18   10   11 1
  19   10   39 1
  20   10   40 1
  21   11   12 ar
  22   11   16 ar
  23   12   13 ar
  24   12   41 1
  25   13   14 ar
  26   13   42 1
  27   14   15 ar
  28   14   30 1
  29   15   16 ar
  30   15   43 1
  31   17   19 1
  32   19   20 ar
  33   19   24 ar
  34   20   21 ar
  35   20   26 1
  36   21   22 ar
  37   21   44 1
  38   22   23 ar
  39   22   25 1
  40   23   24 ar
  41   23   45 1
  42   24   28 1
  43   25   27 3
  44   29   30 2
  45   29   33 1
  46   29   46 1
  47   30   31 1
  48   31   32 2
  49   31   47 1
  50   32   33 1
  51   33   34 1
  52   34   48 1
  53   34   49 1
  54   34   50 1

#	End of record

