#	Name: ASD01911149
#	Creating user name:	WinNT
#	Creation time:	15. 06. 2019 19:57

#	Modifying user name:	WinNT
#	Modification time:	15. 06. 2019 19:57

#	Program:	/corina/corina34_cracker 3.40 0067  02.08.2006

@<TRIPOS>MOLECULE
ASD01911149
  43   46    0    0    0
SMALL
NO_CHARGES


@<TRIPOS>ATOM
   1 C1            -0.0170     1.3781     0.0064 C.ar    
   2 C2            -0.0011    -0.0028    -0.0057 C.ar    
   3 C3             1.2102    -0.6818    -0.0186 C.ar    
   4 C4             2.4021     0.0307    -0.0194 C.ar    
   5 C5             2.3796     1.4115    -0.0072 C.ar    
   6 C6             1.1718     2.0847     0.0057 C.ar    
   7 N7             1.2296    -2.0824    -0.0305 N.pl3   
   8 N8             0.3166    -2.9240     0.6175 N.2     
   9 C9             0.6600    -4.1719     0.3754 C.2     
  10 C10            1.8084    -4.1620    -0.4386 C.2     
  11 C11            2.1363    -2.8651    -0.6790 C.2     
  12 C12           -0.0421    -5.3800     0.8748 C.ar    
  13 C13           -1.1740    -5.2495     1.6769 C.ar    
  14 C14           -1.8234    -6.3765     2.1383 C.ar    
  15 C15           -1.3523    -7.6340     1.8062 C.ar    
  16 C16           -0.2291    -7.7694     1.0103 C.ar    
  17 C17            0.4247    -6.6491     0.5386 C.ar    
  18 N18            3.2114    -2.4170    -1.4438 N.am    
  19 C19            4.0412    -3.3054    -2.0257 C.2     
  20 C20            5.1066    -2.8369    -2.9255 C.2     
  21 O21            3.9091    -4.4948    -1.8069 O.2     
  22 N22            6.0757    -3.5981    -3.5150 N.pl3   
  23 N23            6.8328    -2.8508    -4.2348 N.2     
  24 C24            6.4445    -1.6022    -4.1811 C.2     
  25 C25            5.3244    -1.5372    -3.3494 C.2     
  26 C26            6.2283    -5.0459    -3.3511 C.3     
  27 H27           -0.9587     1.9068     0.0120 H       
  28 H28           -0.9298    -0.5541    -0.0047 H       
  29 H29            3.3458    -0.4945    -0.0291 H       
  30 H30            3.3063     1.9662    -0.0078 H       
  31 H31            1.1568     3.1646     0.0152 H       
  32 H32            2.3329    -5.0302    -0.8094 H       
  33 H33           -1.5423    -4.2682     1.9374 H       
  34 H34           -2.7008    -6.2766     2.7600 H       
  35 H35           -1.8631    -8.5133     2.1699 H       
  36 H36            0.1344    -8.7535     0.7540 H       
  37 H37            1.3016    -6.7560    -0.0827 H       
  38 H38            3.3627    -1.4656    -1.5573 H       
  39 H39            6.9059    -0.7703    -4.6926 H       
  40 H40            4.7536    -0.6586    -3.0873 H       
  41 H41            5.5814    -5.5620    -4.0605 H       
  42 H42            7.2657    -5.3251    -3.5357 H       
  43 H43            5.9515    -5.3277    -2.3352 H       
@<TRIPOS>BOND
   1    1    2 ar
   2    1    6 ar
   3    1   27 1
   4    2    3 ar
   5    2   28 1
   6    3    4 ar
   7    3    7 1
   8    4    5 ar
   9    4   29 1
  10    5    6 ar
  11    5   30 1
  12    6   31 1
  13    7    8 1
  14    7   11 1
  15    8    9 2
  16    9   10 1
  17    9   12 1
  18   10   11 2
  19   10   32 1
  20   11   18 1
  21   12   13 ar
  22   12   17 ar
  23   13   14 ar
  24   13   33 1
  25   14   15 ar
  26   14   34 1
  27   15   16 ar
  28   15   35 1
  29   16   17 ar
  30   16   36 1
  31   17   37 1
  32   18   19 am
  33   18   38 1
  34   19   20 1
  35   19   21 2
  36   20   22 1
  37   20   25 2
  38   22   23 1
  39   22   26 1
  40   23   24 2
  41   24   25 1
  42   24   39 1
  43   25   40 1
  44   26   41 1
  45   26   42 1
  46   26   43 1

#	End of record

