#	Name: ASD07301418
#	Creating user name:	WinNT
#	Creation time:	15. 06. 2019 21:11

#	Modifying user name:	WinNT
#	Modification time:	15. 06. 2019 21:11

#	Program:	/corina/corina34_cracker 3.40 0067  02.08.2006

@<TRIPOS>MOLECULE
ASD07301418
  49   53    0    0    0
SMALL
NO_CHARGES


@<TRIPOS>ATOM
   1 C1            -0.8595     0.9925    -0.1287 C.ar    
   2 C2            -1.0228    -0.3804    -0.3518 C.ar    
   3 C3             0.0570    -1.2300    -0.1931 C.ar    
   4 C4             1.2857    -0.6729     0.1895 C.ar    
   5 C5             1.3699     0.7064     0.3937 C.ar    
   6 N6             0.3180     1.4806     0.2316 N.ar    
   7 C7            -2.9724     0.6193    -0.6992 C.2     
   8 N8            -2.0959     1.5806    -0.3551 N.am    
   9 N9            -2.3536    -0.5767    -0.7119 N.am    
  10 C10            2.4368    -1.5056     0.3689 C.1     
  11 N11            3.3500    -2.1661     0.5112 N.1     
  12 O12           -4.1456     0.8035    -0.9638 O.2     
  13 C13           -2.3840     2.9488    -0.2434 C.ar    
  14 C14           -3.6680     3.4111    -0.4984 C.ar    
  15 C15           -3.9512     4.7580    -0.3879 C.ar    
  16 C16           -2.9528     5.6494    -0.0225 C.ar    
  17 C17           -1.6693     5.1879     0.2320 C.ar    
  18 C18           -1.3866     3.8404     0.1277 C.ar    
  19 O19           -3.2320     6.9755     0.0858 O.3     
  20 C20           -3.9078     7.3950     1.1800 C.2     
  21 N21           -4.2351     6.6390     2.1957 N.2     
  22 C22           -4.9049     7.3787     3.1181 C.ar    
  23 C23           -4.9873     8.6882     2.6156 C.ar    
  24 N24           -4.3436     8.6705     1.3901 N.pl3   
  25 C25           -5.4696     7.0824     4.3607 C.ar    
  26 C26           -6.0998     8.0737     5.0794 C.ar    
  27 C27           -6.1788     9.3645     4.5786 C.ar    
  28 C28           -5.6257     9.6737     3.3529 C.ar    
  29 C29           -4.1656     9.8093     0.4858 C.3     
  30 C30           -2.9750    -1.8626    -1.0384 C.3     
  31 C31           -3.5396    -2.4944     0.2356 C.3     
  32 H32           -0.0433    -2.2925    -0.3589 H       
  33 H33            2.3121     1.1441     0.6889 H       
  34 H34           -4.4451     2.7174    -0.7835 H       
  35 H35           -4.9501     5.1177    -0.5862 H       
  36 H36           -0.8923     5.8822     0.5160 H       
  37 H37           -0.3886     3.4807     0.3301 H       
  38 H38           -5.4124     6.0791     4.7564 H       
  39 H39           -6.5363     7.8440     6.0402 H       
  40 H40           -6.6764    10.1327     5.1517 H       
  41 H41           -5.6899    10.6810     2.9688 H       
  42 H42           -5.0109     9.8643    -0.2000 H       
  43 H43           -4.1090    10.7296     1.0673 H       
  44 H44           -3.2443     9.6815    -0.0825 H       
  45 H45           -3.7819    -1.7049    -1.7541 H       
  46 H46           -2.2283    -2.5270    -1.4733 H       
  47 H47           -2.7327    -2.6521     0.9513 H       
  48 H48           -4.2863    -1.8300     0.6704 H       
  49 H49           -4.0019    -3.4511    -0.0074 H       
@<TRIPOS>BOND
   1    1    2 ar
   2    1    6 ar
   3    1    8 1
   4    2    3 ar
   5    2    9 1
   6    3    4 ar
   7    3   32 1
   8    4    5 ar
   9    4   10 1
  10    5    6 ar
  11    5   33 1
  12    7    8 am
  13    7    9 am
  14    7   12 2
  15    8   13 1
  16    9   30 1
  17   10   11 3
  18   13   14 ar
  19   13   18 ar
  20   14   15 ar
  21   14   34 1
  22   15   16 ar
  23   15   35 1
  24   16   17 ar
  25   16   19 1
  26   17   18 ar
  27   17   36 1
  28   18   37 1
  29   19   20 1
  30   20   21 2
  31   20   24 1
  32   21   22 1
  33   22   23 ar
  34   22   25 ar
  35   23   24 1
  36   23   28 ar
  37   24   29 1
  38   25   26 ar
  39   25   38 1
  40   26   27 ar
  41   26   39 1
  42   27   28 ar
  43   27   40 1
  44   28   41 1
  45   29   42 1
  46   29   43 1
  47   29   44 1
  48   30   31 1
  49   30   45 1
  50   30   46 1
  51   31   47 1
  52   31   48 1
  53   31   49 1

#	End of record

