#	Name: ASD08150485
#	Creating user name:	WinNT
#	Creation time:	15. 06. 2019 21:16

#	Modifying user name:	WinNT
#	Modification time:	15. 06. 2019 21:16

#	Program:	/corina/corina34_cracker 3.40 0067  02.08.2006

@<TRIPOS>MOLECULE
ASD08150485
  43   47    0    0    0
SMALL
NO_CHARGES


@<TRIPOS>ATOM
   1 N1             1.0096     3.1201    -1.7146 N.am    
   2 C2             1.4491     2.5112    -2.8330 C.2     
   3 C3             2.6564     1.7835    -2.8341 C.2     
   4 C4             3.3965     1.6864    -1.7004 C.2     
   5 C5             2.9371     2.3258    -0.5218 C.ar    
   6 C6             3.6666     2.2568     0.6805 C.ar    
   7 N7             3.2404     2.8476     1.7663 N.ar    
   8 C8             2.0962     3.5474     1.8005 C.ar    
   9 C9             1.2980     3.6703     0.6367 C.ar    
  10 C10            1.7309     3.0424    -0.5548 C.ar    
  11 C11            0.1070     4.4014     0.6830 C.ar    
  12 C12           -0.2804     4.9998     1.8710 C.ar    
  13 C13            0.5148     4.8738     3.0187 C.ar    
  14 C14            1.6757     4.1660     2.9894 C.ar    
  15 O15            0.7936     2.5903    -3.8580 O.2     
  16 C16           -1.5420     5.7775     1.9288 C.ar    
  17 C17           -0.1905     3.8421    -1.7408 C.ar    
  18 C18           -0.1878     5.2010    -2.0213 C.ar    
  19 N19           -1.3149     5.8853    -2.0472 N.ar    
  20 C20           -2.4808     5.3133    -1.8100 C.ar    
  21 C21           -2.5632     3.9600    -1.5226 C.ar    
  22 C22           -1.4041     3.2043    -1.4912 C.ar    
  23 F23           -3.6082     6.0567    -1.8476 F       
  24 C24           -2.6613     5.3605     1.2142 C.ar    
  25 N25           -3.7845     6.0486     1.2619 N.ar    
  26 C26           -3.8950     7.1533     1.9840 C.ar    
  27 C27           -2.8182     7.6325     2.7255 C.ar    
  28 C28           -1.6251     6.9380     2.7074 C.ar    
  29 N29           -5.1007     7.8433     2.0016 N.pl3   
  30 H30            2.9935     1.3014    -3.7398 H       
  31 H31            4.3219     1.1297    -1.6964 H       
  32 H32            4.5949     1.7055     0.7065 H       
  33 H33           -0.5061     4.4993    -0.2007 H       
  34 H34            0.2013     5.3452     3.9385 H       
  35 H35            2.2758     4.0789     3.8830 H       
  36 H36            0.7472     5.7036    -2.2201 H       
  37 H37           -3.5209     3.4997    -1.3294 H       
  38 H38           -1.4385     2.1478    -1.2700 H       
  39 H39           -2.6088     4.4642     0.6141 H       
  40 H40           -2.9165     8.5343     3.3115 H       
  41 H41           -0.7738     7.2865     3.2733 H       
  42 H42           -5.8548     7.5152     1.4872 H       
  43 H43           -5.1885     8.6530     2.5284 H       
@<TRIPOS>BOND
   1    1    2 am
   2    1   10 1
   3    1   17 1
   4    2    3 1
   5    2   15 2
   6    3    4 2
   7    3   30 1
   8    4    5 1
   9    4   31 1
  10    5    6 ar
  11    5   10 ar
  12    6    7 ar
  13    6   32 1
  14    7    8 ar
  15    8    9 ar
  16    8   14 ar
  17    9   10 ar
  18    9   11 ar
  19   11   12 ar
  20   11   33 1
  21   12   13 ar
  22   12   16 1
  23   13   14 ar
  24   13   34 1
  25   14   35 1
  26   16   24 ar
  27   16   28 ar
  28   17   18 ar
  29   17   22 ar
  30   18   19 ar
  31   18   36 1
  32   19   20 ar
  33   20   21 ar
  34   20   23 1
  35   21   22 ar
  36   21   37 1
  37   22   38 1
  38   24   25 ar
  39   24   39 1
  40   25   26 ar
  41   26   27 ar
  42   26   29 1
  43   27   28 ar
  44   27   40 1
  45   28   41 1
  46   29   42 1
  47   29   43 1

#	End of record

