#	Name: ASD00170339
#	Creating user name:	WinNT
#	Creation time:	15. 06. 2019 18:31

#	Modifying user name:	WinNT
#	Modification time:	15. 06. 2019 18:31

#	Program:	/corina/corina34_cracker 3.40 0067  02.08.2006

@<TRIPOS>MOLECULE
ASD00170339
  37   39    0    0    0
SMALL
NO_CHARGES


@<TRIPOS>ATOM
   1 C1            -0.0185     1.5118     0.0104 C.3     
   2 C2             0.0021    -0.0041     0.0020 C.2     
   3 C3             1.0772    -0.7300    -0.3285 C.2     
   4 C4             2.3997    -0.0976    -0.7337 C.3     
   5 C5             2.1396     1.3715    -1.0822 C.3     
   6 N6             1.3687     1.9995    -0.0003 N.3     
   7 C7             0.8278    -2.1566    -0.2538 C.2     
   8 C8            -0.4486    -2.4621     0.1366 C.2     
   9 S9            -1.3494    -1.0437     0.4142 S.3     
  10 C10            1.4110     3.4642    -0.1051 C.3     
  11 C11            0.8261     4.0742     1.1425 C.ar    
  12 C12            1.6426     4.3589     2.2210 C.ar    
  13 C13            1.1060     4.9185     3.3655 C.ar    
  14 C14           -0.2470     5.1938     3.4314 C.ar    
  15 C15           -1.0634     4.9099     2.3526 C.ar    
  16 C16           -0.5261     4.3543     1.2065 C.ar    
  17 N17           -0.9390    -3.7457     0.2842 N.pl3   
  18 C18            1.8395    -3.1688    -0.5646 C.2     
  19 O19            2.5685    -3.5907     0.3143 O.2     
  20 N20            1.9633    -3.6334    -1.8237 N.am    
  21 H21           -0.5411     1.8756    -0.8743 H       
  22 H22           -0.5240     1.8660     0.9087 H       
  23 H23            3.1061    -0.1598     0.0941 H       
  24 H24            2.8042    -0.6159    -1.6031 H       
  25 H25            3.0905     1.8911    -1.2005 H       
  26 H26            1.5745     1.4301    -2.0124 H       
  27 H27            2.4448     3.7905    -0.2189 H       
  28 H28            0.8318     3.7833    -0.9716 H       
  29 H29            2.6997     4.1438     2.1695 H       
  30 H30            1.7439     5.1402     4.2083 H       
  31 H31           -0.6664     5.6303     4.3258 H       
  32 H32           -2.1206     5.1247     2.4041 H       
  33 H33           -1.1633     4.1360     0.3622 H       
  34 H34           -0.3653    -4.5074     0.1069 H       
  35 H35           -1.8569    -3.8849     0.5652 H       
  36 H36            1.3824    -3.2972    -2.5240 H       
  37 H37            2.6334    -4.3038    -2.0296 H       
@<TRIPOS>BOND
   1    1    2 1
   2    1    6 1
   3    1   21 1
   4    1   22 1
   5    2    3 2
   6    2    9 1
   7    3    4 1
   8    3    7 1
   9    4    5 1
  10    4   23 1
  11    4   24 1
  12    5    6 1
  13    5   25 1
  14    5   26 1
  15    6   10 1
  16    7    8 2
  17    7   18 1
  18    8    9 1
  19    8   17 1
  20   10   11 1
  21   10   27 1
  22   10   28 1
  23   11   12 ar
  24   11   16 ar
  25   12   13 ar
  26   12   29 1
  27   13   14 ar
  28   13   30 1
  29   14   15 ar
  30   14   31 1
  31   15   16 ar
  32   15   32 1
  33   16   33 1
  34   17   34 1
  35   17   35 1
  36   18   19 2
  37   18   20 am
  38   20   36 1
  39   20   37 1

#	End of record

