#	Name: ASD02198634
#	Creating user name:	WinNT
#	Creation time:	15. 06. 2019 20:19

#	Modifying user name:	WinNT
#	Modification time:	15. 06. 2019 20:19

#	Program:	/corina/corina34_cracker 3.40 0067  02.08.2006

@<TRIPOS>MOLECULE
ASD02198634
  54   58    0    0    0
SMALL
NO_CHARGES


@<TRIPOS>ATOM
   1 C1             0.0067     1.5060     0.1349 C.2     
   2 C2             0.0730     0.1660    -0.0930 C.2     
   3 N3            -1.0541    -0.5635    -0.2624 N.pl3   
   4 N4            -2.2317    -0.0593    -0.2215 N.2     
   5 C5            -2.4385     1.2236    -0.0090 C.2     
   6 C6            -1.2793     2.1039     0.1932 C.2     
   7 C7            -0.9274    -1.9374    -0.4942 C.ar    
   8 C8            -1.5135    -2.5107    -1.6163 C.ar    
   9 C9            -1.3843    -3.8754    -1.8420 C.ar    
  10 C10           -0.6705    -4.6611    -0.9463 C.ar    
  11 C11           -0.0891    -4.0873     0.1685 C.ar    
  12 C12           -0.2106    -2.7298     0.3942 C.ar    
  13 C13           -3.8114     1.7673     0.0305 C.2     
  14 N14           -4.3731     2.4807     1.0519 N.pl3   
  15 N15           -5.6847     2.7995     0.6787 N.2     
  16 C16           -5.9154     2.3062    -0.5118 C.2     
  17 C17           -4.7646     1.6559    -0.9577 C.2     
  18 C18           -3.7491     2.8296     2.2564 C.ar    
  19 C19           -3.9182     4.1029     2.7842 C.ar    
  20 C20           -3.3016     4.4440     3.9720 C.ar    
  21 C21           -2.5161     3.5192     4.6353 C.ar    
  22 C22           -2.3454     2.2506     4.1121 C.ar    
  23 C23           -2.9647     1.9013     2.9281 C.ar    
  24 O24           -1.4165     3.3020     0.3941 O.2     
  25 O25            1.1345     2.2465     0.3066 O.3     
  26 C26            2.3823     1.5537     0.2365 C.3     
  27 F27           -2.2073    -1.7431    -2.4850 F       
  28 N28           -1.9725    -4.4574    -2.9695 N.3     
  29 C29           -0.9559    -5.0952    -3.8261 C.3     
  30 C30           -2.9681    -5.4786    -2.5802 C.3     
  31 C31           -2.8817    -6.5579    -3.6880 C.3     
  32 C32           -1.3601    -6.5754    -3.9904 C.3     
  33 F33           -3.3123    -7.8008    -3.2115 F       
  34 F34           -3.6128    -6.1759    -4.8179 F       
  35 H35            1.0360    -0.3206    -0.1396 H       
  36 H36           -0.5700    -5.7221    -1.1210 H       
  37 H37            0.4652    -4.7011     0.8630 H       
  38 H38            0.2452    -2.2852     1.2665 H       
  39 H39           -6.8419     2.3924    -1.0601 H       
  40 H40           -4.6449     1.1500    -1.9044 H       
  41 H41           -4.5310     4.8258     2.2662 H       
  42 H42           -3.4327     5.4341     4.3830 H       
  43 H43           -2.0346     3.7884     5.5639 H       
  44 H44           -1.7310     1.5307     4.6324 H       
  45 H45           -2.8313     0.9102     2.5201 H       
  46 H46            2.4155     0.7859     1.0095 H       
  47 H47            2.4845     1.0874    -0.7434 H       
  48 H48            3.1988     2.2593     0.3900 H       
  49 H49           -0.9325    -4.6069    -4.8003 H       
  50 H50            0.0232    -5.0287    -3.3518 H       
  51 H51           -2.7124    -5.9079    -1.6114 H       
  52 H52           -3.9670    -5.0433    -2.5515 H       
  53 H53           -1.1736    -6.9151    -5.0092 H       
  54 H54           -0.8315    -7.2014    -3.2715 H       
@<TRIPOS>BOND
   1    1    2 2
   2    1   25 1
   3    1    6 1
   4    2    3 1
   5    2   35 1
   6    3    4 1
   7    3    7 1
   8    4    5 2
   9    5    6 1
  10    5   13 1
  11    6   24 2
  12    7    8 ar
  13    7   12 ar
  14    8    9 ar
  15    8   27 1
  16    9   10 ar
  17    9   28 1
  18   10   11 ar
  19   10   36 1
  20   11   12 ar
  21   11   37 1
  22   12   38 1
  23   13   14 1
  24   13   17 2
  25   14   15 1
  26   14   18 1
  27   15   16 2
  28   16   17 1
  29   16   39 1
  30   17   40 1
  31   18   19 ar
  32   18   23 ar
  33   19   20 ar
  34   19   41 1
  35   20   21 ar
  36   20   42 1
  37   21   22 ar
  38   21   43 1
  39   22   23 ar
  40   22   44 1
  41   23   45 1
  42   25   26 1
  43   26   46 1
  44   26   47 1
  45   26   48 1
  46   28   29 1
  47   28   30 1
  48   29   32 1
  49   29   49 1
  50   29   50 1
  51   30   31 1
  52   30   51 1
  53   30   52 1
  54   31   32 1
  55   31   33 1
  56   31   34 1
  57   32   53 1
  58   32   54 1

#	End of record

