#	Name: ASD01903183
#	Creating user name:	WinNT
#	Creation time:	15. 06. 2019 19:54

#	Modifying user name:	WinNT
#	Modification time:	15. 06. 2019 19:54

#	Program:	/corina/corina34_cracker 3.40 0067  02.08.2006

@<TRIPOS>MOLECULE
ASD01903183
  42   45    0    0    0
SMALL
NO_CHARGES


@<TRIPOS>ATOM
   1 S1            -0.0242     1.7576    -0.0296 S.3     
   2 C2             0.0013    -0.0032    -0.0096 C.2     
   3 N3             1.2320    -0.4153    -0.0142 N.2     
   4 C4             2.1769     0.5141    -0.0320 C.2     
   5 C5             1.7377     1.7832    -0.0433 C.2     
   6 N6            -1.1185    -0.8216     0.0090 N.pl3   
   7 C7            -2.3869    -0.2623     0.1294 C.ar    
   8 N8            -2.5132     1.0402     0.3311 N.ar    
   9 C9            -3.6973     1.6102     0.4504 C.ar    
  10 C10           -4.8547     0.8623     0.3684 C.ar    
  11 C11           -4.7658    -0.5075     0.1575 C.ar    
  12 C12           -3.5112    -1.0759     0.0312 C.ar    
  13 C13            3.6232     0.1751    -0.0386 C.2     
  14 C14            4.6407     0.8841    -0.7053 C.2     
  15 N15            5.7764     0.2801    -0.4735 N.2     
  16 N16            5.5308    -0.8299     0.3439 N.am    
  17 C17            4.2071    -0.8760     0.6048 C.2     
  18 C18            7.2558    -1.2791     2.4409 C.ar    
  19 C19            6.6314    -1.6495     3.6173 C.ar    
  20 C20            7.0919    -1.1646     4.8268 C.ar    
  21 C21            8.1781    -0.3083     4.8601 C.ar    
  22 C22            8.8026     0.0621     3.6824 C.ar    
  23 C23            8.3446    -0.4280     2.4739 C.ar    
  24 Cl24           8.7567     0.3018     6.3789 Cl      
  25 C25            2.6029     3.0169    -0.0650 C.3     
  26 S26            6.6681    -1.8978     0.8993 S.o2    
  27 O27            5.9772    -3.1053     1.1886 O.2     
  28 O28            7.7617    -1.8257    -0.0052 O.2     
  29 H29           -1.0174    -1.7837    -0.0619 H       
  30 H30           -3.7618     2.6757     0.6146 H       
  31 H31           -5.8194     1.3375     0.4675 H       
  32 H32           -5.6564    -1.1146     0.0896 H       
  33 H33           -3.4055    -2.1380    -0.1335 H       
  34 H34            4.5061     1.7726    -1.3044 H       
  35 H35            3.7014    -1.6149     1.2087 H       
  36 H36            5.7833    -2.3177     3.5912 H       
  37 H37            6.6038    -1.4537     5.7458 H       
  38 H38            9.6505     0.7305     3.7077 H       
  39 H39            8.8321    -0.1390     1.5545 H       
  40 H40            2.8029     3.3023    -1.0978 H       
  41 H41            2.0871     3.8314     0.4437 H       
  42 H42            3.5444     2.8094     0.4435 H       
@<TRIPOS>BOND
   1    1    2 1
   2    1    5 1
   3    2    3 2
   4    2    6 1
   5    3    4 1
   6    4    5 2
   7    4   13 1
   8    5   25 1
   9    6    7 1
  10    6   29 1
  11    7    8 ar
  12    7   12 ar
  13    8    9 ar
  14    9   10 ar
  15    9   30 1
  16   10   11 ar
  17   10   31 1
  18   11   12 ar
  19   11   32 1
  20   12   33 1
  21   13   14 1
  22   13   17 2
  23   14   15 2
  24   14   34 1
  25   15   16 1
  26   16   17 1
  27   16   26 am
  28   17   35 1
  29   18   19 ar
  30   18   26 1
  31   18   23 ar
  32   19   20 ar
  33   19   36 1
  34   20   21 ar
  35   20   37 1
  36   21   22 ar
  37   21   24 1
  38   22   23 ar
  39   22   38 1
  40   23   39 1
  41   25   40 1
  42   25   41 1
  43   25   42 1
  44   26   27 2
  45   26   28 2

#	End of record

