#	Name: ASD08390005
#	Creating user name:	WinNT
#	Creation time:	15. 06. 2019 21:19

#	Modifying user name:	WinNT
#	Modification time:	15. 06. 2019 21:19

#	Program:	/corina/corina34_cracker 3.40 0067  02.08.2006

@<TRIPOS>MOLECULE
ASD08390005
  57   61    0    0    0
SMALL
NO_CHARGES


@<TRIPOS>ATOM
   1 N1            -0.0808     1.2513    -0.4112 N.2     
   2 C2             0.0894    -0.1777    -0.1143 C.3     
   3 C3             1.5929    -0.3193     0.1952 C.3     
   4 N4             2.1015     1.0535     0.0366 N.pl3   
   5 C5             1.0522     1.8643    -0.3113 C.2     
   6 C6             4.2617     1.2401    -1.0533 C.ar    
   7 C7             4.4158     2.2624    -1.9710 C.ar    
   8 C8             5.1275     2.0441    -3.1358 C.ar    
   9 C9             5.6854     0.8037    -3.3827 C.ar    
  10 C10            5.5321    -0.2183    -2.4646 C.ar    
  11 C11            4.8192    -0.0004    -1.3005 C.ar    
  12 C12            3.4911     1.4799     0.2194 C.3     
  13 C13            1.8018    -0.8039     1.6068 C.ar    
  14 C14            2.0951    -2.1337     1.8447 C.ar    
  15 C15            2.2867    -2.5782     3.1395 C.ar    
  16 C16            2.1854    -1.6929     4.1964 C.ar    
  17 C17            1.8930    -0.3630     3.9583 C.ar    
  18 C18            1.7057     0.0825     2.6632 C.ar    
  19 C19           -0.7358    -0.5699     1.0842 C.ar    
  20 C20           -1.2943     0.4060     1.8881 C.ar    
  21 C21           -2.0511     0.0462     2.9875 C.ar    
  22 C22           -2.2498    -1.2896     3.2826 C.ar    
  23 C23           -1.6920    -2.2655     2.4781 C.ar    
  24 C24           -0.9388    -1.9057     1.3763 C.ar    
  25 C25            1.2042     3.3175    -0.5520 C.ar    
  26 C26            0.5716     3.9168    -1.6408 C.ar    
  27 C27            0.7166     5.2715    -1.8596 C.ar    
  28 C28            1.4880     6.0348    -1.0017 C.ar    
  29 C29            2.1181     5.4461     0.0801 C.ar    
  30 C30            1.9759     4.0934     0.3126 C.ar    
  31 C31           -0.2877    -1.0139    -1.3100 C.2     
  32 O32            0.3306    -2.0209    -1.5620 O.2     
  33 O33           -1.3104    -0.6401    -2.0949 O.3     
  34 H34            2.0707    -0.9911    -0.5178 H       
  35 H35            3.9799     3.2315    -1.7781 H       
  36 H36            5.2473     2.8426    -3.8531 H       
  37 H37            6.2408     0.6330    -4.2931 H       
  38 H38            5.9674    -1.1876    -2.6579 H       
  39 H39            4.6988    -0.7991    -0.5835 H       
  40 H40            3.5161     2.5416     0.4647 H       
  41 H41            3.9427     0.9088     1.0306 H       
  42 H42            2.1742    -2.8253     1.0190 H       
  43 H43            2.5151    -3.6173     3.3255 H       
  44 H44            2.3344    -2.0404     5.2080 H       
  45 H45            1.8136     0.3286     4.7840 H       
  46 H46            1.4810     1.1223     2.4769 H       
  47 H47           -1.1391     1.4497     1.6576 H       
  48 H48           -2.4869     0.8087     3.6161 H       
  49 H49           -2.8405    -1.5707     4.1420 H       
  50 H50           -1.8469    -3.3092     2.7089 H       
  51 H51           -0.5061    -2.6682     0.7456 H       
  52 H52           -0.0303     3.3217    -2.3117 H       
  53 H53            0.2272     5.7367    -2.7025 H       
  54 H54            1.5992     7.0946    -1.1774 H       
  55 H55            2.7190     6.0472     0.7464 H       
  56 H56            2.4645     3.6356     1.1600 H       
  57 H57           -1.5148    -1.2085    -2.8500 H       
@<TRIPOS>BOND
   1    1    2 1
   2    1    5 2
   3    2   19 1
   4    2   31 1
   5    2    3 1
   6    3    4 1
   7    3   13 1
   8    3   34 1
   9    4    5 1
  10    4   12 1
  11    5   25 1
  12    6    7 ar
  13    6   11 ar
  14    6   12 1
  15    7    8 ar
  16    7   35 1
  17    8    9 ar
  18    8   36 1
  19    9   10 ar
  20    9   37 1
  21   10   11 ar
  22   10   38 1
  23   11   39 1
  24   12   40 1
  25   12   41 1
  26   13   14 ar
  27   13   18 ar
  28   14   15 ar
  29   14   42 1
  30   15   16 ar
  31   15   43 1
  32   16   17 ar
  33   16   44 1
  34   17   18 ar
  35   17   45 1
  36   18   46 1
  37   19   20 ar
  38   19   24 ar
  39   20   21 ar
  40   20   47 1
  41   21   22 ar
  42   21   48 1
  43   22   23 ar
  44   22   49 1
  45   23   24 ar
  46   23   50 1
  47   24   51 1
  48   25   26 ar
  49   25   30 ar
  50   26   27 ar
  51   26   52 1
  52   27   28 ar
  53   27   53 1
  54   28   29 ar
  55   28   54 1
  56   29   30 ar
  57   29   55 1
  58   30   56 1
  59   31   32 2
  60   31   33 1
  61   33   57 1

#	End of record

