#	Name: ASD01870486
#	Creating user name:	WinNT
#	Creation time:	15. 06. 2019 19:39

#	Modifying user name:	WinNT
#	Modification time:	15. 06. 2019 19:39

#	Program:	/corina/corina34_cracker 3.40 0067  02.08.2006

@<TRIPOS>MOLECULE
ASD01870486
  39   42    0    0    0
SMALL
NO_CHARGES


@<TRIPOS>ATOM
   1 C1            -0.0307     1.4004    -0.2321 C.ar    
   2 C2            -0.0276     0.0163    -0.1042 C.ar    
   3 C3             1.1506    -0.6608     0.1407 C.ar    
   4 C4             2.3475     0.0295     0.2622 C.ar    
   5 C5             2.3622     1.4087     0.1370 C.ar    
   6 C6             1.1605     2.1035    -0.1127 C.ar    
   7 C7             3.4184     2.4403     0.2047 C.2     
   8 N8             2.8535     3.6449     0.0057 N.am    
   9 C9             1.5270     3.5315    -0.1871 C.2     
  10 O10            0.7592     4.4506    -0.3901 O.2     
  11 O11            4.5983     2.2350     0.4068 O.2     
  12 C12            3.5553     4.8603     0.0024 C.ar    
  13 C13            4.0861     5.3520    -1.1824 C.ar    
  14 C14            4.7765     6.5474    -1.1861 C.ar    
  15 C15            4.9405     7.2589    -0.0044 C.ar    
  16 C16            4.4094     6.7678     1.1810 C.ar    
  17 C17            3.7139     5.5740     1.1836 C.ar    
  18 Cl18           3.0439     4.9628     2.6639 Cl      
  19 N19            5.6414     8.4706    -0.0084 N.am    
  20 C20            6.4136     8.8059     1.0441 C.2     
  21 C21            7.2316    10.0312     0.9974 C.2     
  22 O22            6.4355     8.0975     2.0325 O.2     
  23 C23            8.0539    10.4924     1.9791 C.2     
  24 O24            8.6033    11.6309     1.5265 O.3     
  25 C25            8.1295    11.8643     0.2944 C.2     
  26 N26            7.3114    10.9110    -0.0375 N.2     
  27 C27            8.3006     9.8481     3.3188 C.3     
  28 F28           -1.1855     2.0573    -0.4769 F       
  29 H29           -0.9529    -0.5330    -0.1967 H       
  30 H30            1.1400    -1.7363     0.2389 H       
  31 H31            3.2650    -0.5068     0.4542 H       
  32 H32            3.9592     4.7990    -2.1013 H       
  33 H33            5.1896     6.9294    -2.1080 H       
  34 H34            4.5370     7.3207     2.0999 H       
  35 H35            5.5714     9.0690    -0.7686 H       
  36 H36            8.3905    12.7087    -0.3262 H       
  37 H37            9.1398     9.1569     3.2405 H       
  38 H38            8.5314    10.6178     4.0552 H       
  39 H39            7.4091     9.3034     3.6297 H       
@<TRIPOS>BOND
   1    1    2 ar
   2    1    6 ar
   3    1   28 1
   4    2    3 ar
   5    2   29 1
   6    3    4 ar
   7    3   30 1
   8    4    5 ar
   9    4   31 1
  10    5    7 1
  11    5    6 ar
  12    6    9 1
  13    7    8 am
  14    7   11 2
  15    8    9 am
  16    8   12 1
  17    9   10 2
  18   12   13 ar
  19   12   17 ar
  20   13   14 ar
  21   13   32 1
  22   14   15 ar
  23   14   33 1
  24   15   16 ar
  25   15   19 1
  26   16   17 ar
  27   16   34 1
  28   17   18 1
  29   19   20 am
  30   19   35 1
  31   20   21 1
  32   20   22 2
  33   21   23 2
  34   21   26 1
  35   23   24 1
  36   23   27 1
  37   24   25 1
  38   25   26 2
  39   25   36 1
  40   27   37 1
  41   27   38 1
  42   27   39 1

#	End of record

