#	Name: ASD03430745
#	Creating user name:	WinNT
#	Creation time:	15. 06. 2019 20:41

#	Modifying user name:	WinNT
#	Modification time:	15. 06. 2019 20:41

#	Program:	/corina/corina34_cracker 3.40 0067  02.08.2006

@<TRIPOS>MOLECULE
ASD03430745
  58   64    0    0    0
SMALL
NO_CHARGES


@<TRIPOS>ATOM
   1 C1             3.9511    -1.2906    -3.1998 C.ar    
   2 C2             3.1099    -2.1616    -2.5341 C.ar    
   3 C3             3.5096    -3.4572    -2.2820 C.ar    
   4 C4             4.7653    -3.9011    -2.6834 C.ar    
   5 C5             5.6123    -3.0199    -3.3578 C.ar    
   6 C6             5.2039    -1.7208    -3.6165 C.ar    
   7 O7             4.9721    -5.1984    -2.3173 O.3     
   8 C8             2.8346    -4.6262    -1.6166 C.3     
   9 C9             3.7034    -5.8203    -2.0364 C.3     
  10 C10            1.4234    -4.5607     0.2070 C.ar    
  11 C11            2.7735    -4.4778    -0.1251 C.ar    
  12 C12            1.4092    -4.7908    -2.0590 C.2     
  13 N13            0.6531    -4.7437    -0.9439 N.am    
  14 O14            1.0152    -4.9370    -3.1967 O.2     
  15 C15            3.7257    -4.2940     0.8519 C.ar    
  16 C16            3.3463    -4.1920     2.1789 C.ar    
  17 C17            2.0091    -4.2746     2.5204 C.ar    
  18 C18            1.0509    -4.4572     1.5446 C.ar    
  19 C19           -0.8065    -4.8695    -0.9396 C.3     
  20 C20           -1.4112    -3.7293    -1.7177 C.ar    
  21 C21           -2.6815    -3.8519    -2.2489 C.ar    
  22 C22           -3.2361    -2.8061    -2.9626 C.ar    
  23 C23           -2.5207    -1.6373    -3.1447 C.ar    
  24 C24           -1.2508    -1.5143    -2.6126 C.ar    
  25 C25           -0.6978    -2.5586    -1.8952 C.ar    
  26 C26           -1.1999    -6.1771    -1.5772 C.ar    
  27 C27           -1.6008    -7.2382    -0.7872 C.ar    
  28 C28           -1.9616    -8.4377    -1.3720 C.ar    
  29 C29           -1.9220    -8.5758    -2.7469 C.ar    
  30 C30           -1.5220    -7.5144    -3.5369 C.ar    
  31 C31           -1.1653    -6.3136    -2.9524 C.ar    
  32 O32            6.0165    -0.8545    -4.2824 O.3     
  33 C33            7.4042    -1.1991    -4.3541 C.3     
  34 C34            7.5125    -2.6787    -4.7471 C.3     
  35 O35            6.8415    -3.4571    -3.7502 O.3     
  36 H36            3.6329    -0.2781    -3.3997 H       
  37 H37            2.1359    -1.8264    -2.2096 H       
  38 H38            3.3000    -6.2976    -2.9294 H       
  39 H39            3.7959    -6.5375    -1.2208 H       
  40 H40            4.7696    -4.2296     0.5827 H       
  41 H41            4.0930    -4.0486     2.9459 H       
  42 H42            1.7132    -4.1962     3.5561 H       
  43 H43            0.0083    -4.5204     1.8193 H       
  44 H44           -1.1705    -4.8420     0.0874 H       
  45 H45           -3.2404    -4.7650    -2.1067 H       
  46 H46           -4.2283    -2.9022    -3.3783 H       
  47 H47           -2.9538    -0.8205    -3.7029 H       
  48 H48           -0.6917    -0.6014    -2.7551 H       
  49 H49            0.2943    -2.4625    -1.4795 H       
  50 H50           -1.6317    -7.1303     0.2870 H       
  51 H51           -2.2741    -9.2670    -0.7547 H       
  52 H52           -2.2032    -9.5132    -3.2037 H       
  53 H53           -1.4907    -7.6224    -4.6111 H       
  54 H54           -0.8528    -5.4843    -3.5696 H       
  55 H55            7.8977    -0.5823    -5.1051 H       
  56 H56            7.8726    -1.0416    -3.3826 H       
  57 H57            7.0403    -2.8371    -5.7166 H       
  58 H58            8.5617    -2.9701    -4.7965 H       
@<TRIPOS>BOND
   1    1    2 ar
   2    1    6 ar
   3    1   36 1
   4    2    3 ar
   5    2   37 1
   6    3    4 ar
   7    3    8 1
   8    4    5 ar
   9    4    7 1
  10    5    6 ar
  11    5   35 1
  12    6   32 1
  13    7    9 1
  14    8    9 1
  15    8   11 1
  16    8   12 1
  17    9   38 1
  18    9   39 1
  19   10   11 ar
  20   10   13 1
  21   10   18 ar
  22   11   15 ar
  23   12   13 am
  24   12   14 2
  25   13   19 1
  26   15   16 ar
  27   15   40 1
  28   16   17 ar
  29   16   41 1
  30   17   18 ar
  31   17   42 1
  32   18   43 1
  33   19   20 1
  34   19   26 1
  35   19   44 1
  36   20   21 ar
  37   20   25 ar
  38   21   22 ar
  39   21   45 1
  40   22   23 ar
  41   22   46 1
  42   23   24 ar
  43   23   47 1
  44   24   25 ar
  45   24   48 1
  46   25   49 1
  47   26   27 ar
  48   26   31 ar
  49   27   28 ar
  50   27   50 1
  51   28   29 ar
  52   28   51 1
  53   29   30 ar
  54   29   52 1
  55   30   31 ar
  56   30   53 1
  57   31   54 1
  58   32   33 1
  59   33   34 1
  60   33   55 1
  61   33   56 1
  62   34   35 1
  63   34   57 1
  64   34   58 1

#	End of record

