#	Name: ASD04880399
#	Creating user name:	WinNT
#	Creation time:	15. 06. 2019 20:53

#	Modifying user name:	WinNT
#	Modification time:	15. 06. 2019 20:53

#	Program:	/corina/corina34_cracker 3.40 0067  02.08.2006

@<TRIPOS>MOLECULE
ASD04880399
  45   47    0    0    0
SMALL
NO_CHARGES


@<TRIPOS>ATOM
   1 C1             0.5769     0.6786     0.4446 C.ar    
   2 C2             1.5932     1.5624     0.1300 C.ar    
   3 C3             2.8822     1.1029    -0.0460 C.ar    
   4 C4             3.1612    -0.2576     0.0939 C.ar    
   5 C5             2.1324    -1.1461     0.4114 C.ar    
   6 C6             0.8457    -0.6738     0.5852 C.ar    
   7 C7             4.5400    -0.7555    -0.0940 C.2     
   8 O8             4.7617    -1.9511    -0.0821 O.2     
   9 N9             5.5517     0.1156    -0.2786 N.am    
  10 C10            6.9775    -0.2360    -0.3726 C.3     
  11 N11            5.4178     1.4956    -0.4175 N.2     
  12 C12            6.5340     2.1186    -0.5841 C.2     
  13 C13            7.6729     1.1241    -0.5794 C.3     
  14 F14           -0.1519    -1.5314     0.8926 F       
  15 C15            6.6774     3.5745    -0.7562 C.ar    
  16 C16            5.5438     4.3990    -0.7460 C.ar    
  17 C17            5.6878     5.7689    -0.9088 C.ar    
  18 C18            6.9537     6.3189    -1.0812 C.ar    
  19 C19            8.0759     5.5013    -1.0912 C.ar    
  20 C20            7.9445     4.1392    -0.9245 C.ar    
  21 O21            4.3084     3.8582    -0.5777 O.3     
  22 O22            4.5909     6.5745    -0.9002 O.3     
  23 C23            3.9428     6.8013    -2.1534 C.3     
  24 C24            3.7891     3.8282     0.7532 C.3     
  25 O25            7.0926     7.6617    -1.2410 O.3     
  26 C26            8.4206     8.1606    -1.4133 C.3     
  27 H27           -0.4294     1.0444     0.5857 H       
  28 H28            1.3771     2.6150     0.0215 H       
  29 H29            3.6742     1.7948    -0.2919 H       
  30 H30            2.3417    -2.2000     0.5207 H       
  31 H31            7.3186    -0.7047     0.5505 H       
  32 H32            7.1555    -0.8914    -1.2252 H       
  33 H33            8.3589     1.3323     0.2416 H       
  34 H34            8.2001     1.1421    -1.5333 H       
  35 H35            9.0560     5.9347    -1.2255 H       
  36 H36            8.8204     3.5074    -0.9326 H       
  37 H37            4.6175     7.3392    -2.8193 H       
  38 H38            3.6752     5.8448    -2.6025 H       
  39 H39            3.0412     7.3928    -1.9944 H       
  40 H40            2.7644     3.4572     0.7352 H       
  41 H41            4.4030     3.1700     1.3680 H       
  42 H42            3.8039     4.8346     1.1717 H       
  43 H43            8.8646     7.7124    -2.3022 H       
  44 H44            8.3895     9.2439    -1.5296 H       
  45 H45            9.0206     7.9060    -0.5397 H       
@<TRIPOS>BOND
   1    1    2 ar
   2    1    6 ar
   3    1   27 1
   4    2    3 ar
   5    2   28 1
   6    3    4 ar
   7    3   29 1
   8    4    5 ar
   9    4    7 1
  10    5    6 ar
  11    5   30 1
  12    6   14 1
  13    7    8 2
  14    7    9 am
  15    9   10 1
  16    9   11 1
  17   10   13 1
  18   10   31 1
  19   10   32 1
  20   11   12 2
  21   12   13 1
  22   12   15 1
  23   13   33 1
  24   13   34 1
  25   15   16 ar
  26   15   20 ar
  27   16   17 ar
  28   16   21 1
  29   17   18 ar
  30   17   22 1
  31   18   19 ar
  32   18   25 1
  33   19   20 ar
  34   19   35 1
  35   20   36 1
  36   21   24 1
  37   22   23 1
  38   23   37 1
  39   23   38 1
  40   23   39 1
  41   24   40 1
  42   24   41 1
  43   24   42 1
  44   25   26 1
  45   26   43 1
  46   26   44 1
  47   26   45 1

#	End of record

