#	Name: ASD00170196
#	Creating user name:	WinNT
#	Creation time:	15. 06. 2019 18:31

#	Modifying user name:	WinNT
#	Modification time:	15. 06. 2019 18:31

#	Program:	/corina/corina34_cracker 3.40 0067  02.08.2006

@<TRIPOS>MOLECULE
ASD00170196
  36   38    0    0    0
SMALL
NO_CHARGES


@<TRIPOS>ATOM
   1 C1            -0.0142     1.3328    -0.1102 C.2     
   2 C2             0.0056    -0.0013    -0.1406 C.2     
   3 C3            -1.3204    -0.5793     0.0264 C.2     
   4 C4            -2.3071     0.3600     0.1720 C.2     
   5 S5            -1.6529     1.9297     0.1174 S.3     
   6 C6             1.2017     2.2259    -0.2456 C.3     
   7 C7             2.0521     1.7759    -1.4322 C.3     
   8 C8             3.0748     0.7477    -0.9565 C.3     
   9 C9             2.4801    -0.0898     0.1735 C.3     
  10 C10            1.2553    -0.8424    -0.3373 C.3     
  11 N11           -3.6460     0.0726     0.3432 N.pl3   
  12 C12           -1.5739    -2.0198     0.0369 C.2     
  13 C13           -1.8293    -2.7350    -1.2323 C.ar    
  14 O14           -1.5747    -2.6302     1.0906 O.2     
  15 C15           -1.9617    -4.1246    -1.2393 C.ar    
  16 C16           -2.1997    -4.7857    -2.4261 C.ar    
  17 C17           -2.3073    -4.0741    -3.6087 C.ar    
  18 C18           -2.1770    -2.6959    -3.6083 C.ar    
  19 C19           -1.9446    -2.0226    -2.4272 C.ar    
  20 I20           -2.6683    -5.0873    -5.4066 I       
  21 H21            0.8788     3.2552    -0.4018 H       
  22 H22            1.7953     2.1694     0.6669 H       
  23 H23            1.4105     1.3273    -2.1906 H       
  24 H24            2.5707     2.6362    -1.8555 H       
  25 H25            3.3459     0.0955    -1.7868 H       
  26 H26            3.9653     1.2625    -0.5959 H       
  27 H27            3.2241    -0.8041     0.5261 H       
  28 H28            2.1877     0.5644     0.9949 H       
  29 H29            1.1512    -1.7782     0.2118 H       
  30 H30            1.3812    -1.0601    -1.3979 H       
  31 H31           -3.9557    -0.8451     0.2907 H       
  32 H32           -4.2774     0.7884     0.5162 H       
  33 H33           -1.8775    -4.6808    -0.3174 H       
  34 H34           -2.3020    -5.8609    -2.4329 H       
  35 H35           -2.2620    -2.1463    -4.5341 H       
  36 H36           -1.8434    -0.9474    -2.4281 H       
@<TRIPOS>BOND
   1    1    2 2
   2    1    6 1
   3    1    5 1
   4    2    3 1
   5    2   10 1
   6    3    4 2
   7    3   12 1
   8    4    5 1
   9    4   11 1
  10    6    7 1
  11    6   21 1
  12    6   22 1
  13    7    8 1
  14    7   23 1
  15    7   24 1
  16    8    9 1
  17    8   25 1
  18    8   26 1
  19    9   10 1
  20    9   27 1
  21    9   28 1
  22   10   29 1
  23   10   30 1
  24   11   31 1
  25   11   32 1
  26   12   13 1
  27   12   14 2
  28   13   15 ar
  29   13   19 ar
  30   15   16 ar
  31   15   33 1
  32   16   17 ar
  33   16   34 1
  34   17   18 ar
  35   17   20 1
  36   18   19 ar
  37   18   35 1
  38   19   36 1

#	End of record

