#	Name: ASD08151076
#	Creating user name:	WinNT
#	Creation time:	15. 06. 2019 21:17

#	Modifying user name:	WinNT
#	Modification time:	15. 06. 2019 21:17

#	Program:	/corina/corina34_cracker 3.40 0067  02.08.2006

@<TRIPOS>MOLECULE
ASD08151076
  40   41    0    0    0
SMALL
NO_CHARGES


@<TRIPOS>ATOM
   1 C1            -0.0170     1.4045     0.0098 C.ar    
   2 C2             0.0021    -0.0041     0.0020 C.ar    
   3 C3             1.2230    -0.6847    -0.0133 C.ar    
   4 C4             2.4083     0.0164    -0.0204 C.ar    
   5 C5             2.4021     1.4147    -0.0128 C.ar    
   6 C6             1.1864     2.1116     0.0021 C.ar    
   7 C7            -1.3071     2.1311     0.0198 C.ar    
   8 C8            -2.1618     2.0243     1.1168 C.ar    
   9 C9            -3.3647     2.7051     1.1215 C.ar    
  10 C10           -3.7219     3.4924     0.0391 C.ar    
  11 C11           -2.8768     3.6014    -1.0531 C.ar    
  12 C12           -1.6691     2.9293    -1.0651 C.ar    
  13 C13           -1.2613    -0.7579     0.0105 C.2     
  14 O14           -1.2438    -1.9813     0.0038 O.co2   
  15 O15           -2.3296    -0.1614     0.0243 O.co2   
  16 C16            3.6395     2.1354    -0.0203 C.1     
  17 C17            4.6540     2.7262    -0.0264 C.1     
  18 Si18           6.2958     3.6824    -0.0363 Si      
  19 C19            5.9485     5.5127    -0.0233 C.3     
  20 C20            7.2883     3.2279     1.4734 C.3     
  21 C21            7.2604     3.2443    -1.5687 C.3     
  22 F22           -3.2311     4.3705    -2.1058 F       
  23 F23           -4.1937     2.6021     2.1833 F       
  24 Cl24           3.9181    -0.8403    -0.0383 Cl      
  25 N25            1.1789     3.5039     0.0092 N.pl3   
  26 H26            1.2368    -1.7646    -0.0192 H       
  27 H27           -1.8843     1.4105     1.9610 H       
  28 H28           -4.6627     4.0227     0.0466 H       
  29 H29           -1.0087     3.0188    -1.9150 H       
  30 H30            5.3842     5.7691     0.8733 H       
  31 H31            6.8904     6.0613    -0.0290 H       
  32 H32            5.3679     5.7787    -0.9066 H       
  33 H33            7.4915     2.1570     1.4657 H       
  34 H34            8.2302     3.7765     1.4677 H       
  35 H35            6.7239     3.4843     2.3699 H       
  36 H36            6.6797     3.5102    -2.4520 H       
  37 H37            8.2023     3.7928    -1.5744 H       
  38 H38            7.4636     2.1734    -1.5764 H       
  39 H39            0.3363     3.9843     0.0195 H       
  40 H40            2.0163     3.9934     0.0038 H       
@<TRIPOS>BOND
   1    1    2 ar
   2    1    6 ar
   3    1    7 1
   4    2    3 ar
   5    2   13 1
   6    3    4 ar
   7    3   26 1
   8    4    5 ar
   9    4   24 1
  10    5    6 ar
  11    5   16 1
  12    6   25 1
  13    7    8 ar
  14    7   12 ar
  15    8    9 ar
  16    8   27 1
  17    9   10 ar
  18    9   23 1
  19   10   11 ar
  20   10   28 1
  21   11   12 ar
  22   11   22 1
  23   12   29 1
  24   13   14 ar
  25   13   15 ar
  26   16   17 3
  27   17   18 1
  28   18   19 1
  29   18   20 1
  30   18   21 1
  31   19   30 1
  32   19   31 1
  33   19   32 1
  34   20   33 1
  35   20   34 1
  36   20   35 1
  37   21   36 1
  38   21   37 1
  39   21   38 1
  40   25   39 1
  41   25   40 1

#	End of record

