#	Name: ASD01915986
#	Creating user name:	WinNT
#	Creation time:	15. 06. 2019 20:06

#	Modifying user name:	WinNT
#	Modification time:	15. 06. 2019 20:06

#	Program:	/corina/corina34_cracker 3.40 0067  02.08.2006

@<TRIPOS>MOLECULE
ASD01915986
  42   43    0    0    0
SMALL
NO_CHARGES


@<TRIPOS>ATOM
   1 C1            -0.1990     1.8581     0.6587 C.ar    
   2 C2            -0.3123     0.4922     0.9520 C.ar    
   3 C3             0.8517    -0.2855     1.0327 C.ar    
   4 C4             2.0688     0.3312     0.8185 C.ar    
   5 C5             2.0997     1.6967     0.5311 C.ar    
   6 N6             0.9775     2.4051     0.4618 N.ar    
   7 C7             3.3991     2.3643     0.3004 C.2     
   8 N8             3.4339     3.6466    -0.1128 N.am    
   9 O9             4.4357     1.7564     0.4836 O.2     
  10 C10            4.7168     4.3449    -0.2270 C.3     
  11 C11            5.8517     3.3918     0.1531 C.3     
  12 C12            4.9117     4.8212    -1.6678 C.3     
  13 C13            4.7266     5.5508     0.7146 C.3     
  14 C14           -1.5982    -0.1004     1.1665 C.1     
  15 C15           -2.6524    -0.5862     1.3424 C.1     
  16 C16           -3.9382    -1.1788     1.5569 C.ar    
  17 C17           -4.0436    -2.5413     1.8489 C.ar    
  18 C18           -5.0957    -0.3949     1.4808 C.ar    
  19 C19           -6.3326    -0.9738     1.6889 C.ar    
  20 C20           -6.4291    -2.3243     1.9723 C.ar    
  21 C21           -5.2874    -3.1057     2.0545 C.ar    
  22 C22            2.1890     4.3423    -0.4478 C.3     
  23 F23           -5.0032     0.9244     1.2049 F       
  24 F24           -5.3916    -4.4239     2.3314 F       
  25 H25           -1.0892     2.4656     0.5896 H       
  26 H26            0.7979    -1.3406     1.2573 H       
  27 H27            2.9859    -0.2364     0.8731 H       
  28 H28            5.8447     2.5327    -0.5177 H       
  29 H29            6.8062     3.9113     0.0682 H       
  30 H30            5.7129     3.0525     1.1796 H       
  31 H31            4.1032     5.5001    -1.9386 H       
  32 H32            5.8662     5.3407    -1.7528 H       
  33 H33            4.9047     3.9620    -2.3386 H       
  34 H34            4.5877     5.2115     1.7410 H       
  35 H35            5.6811     6.0703     0.6296 H       
  36 H36            3.9180     6.2298     0.4438 H       
  37 H37           -3.1548    -3.1515     1.9133 H       
  38 H38           -7.2265    -0.3705     1.6305 H       
  39 H39           -7.3988    -2.7713     2.1344 H       
  40 H40            1.7436     4.7479     0.4606 H       
  41 H41            2.4024     5.1552    -1.1420 H       
  42 H42            1.4946     3.6416    -0.9114 H       
@<TRIPOS>BOND
   1    1    2 ar
   2    1    6 ar
   3    1   25 1
   4    2    3 ar
   5    2   14 1
   6    3    4 ar
   7    3   26 1
   8    4    5 ar
   9    4   27 1
  10    5    6 ar
  11    5    7 1
  12    7    8 am
  13    7    9 2
  14    8   10 1
  15    8   22 1
  16   10   11 1
  17   10   12 1
  18   10   13 1
  19   11   28 1
  20   11   29 1
  21   11   30 1
  22   12   31 1
  23   12   32 1
  24   12   33 1
  25   13   34 1
  26   13   35 1
  27   13   36 1
  28   14   15 3
  29   15   16 1
  30   16   17 ar
  31   16   18 ar
  32   17   21 ar
  33   17   37 1
  34   18   19 ar
  35   18   23 1
  36   19   20 ar
  37   19   38 1
  38   20   21 ar
  39   20   39 1
  40   21   24 1
  41   22   40 1
  42   22   41 1
  43   22   42 1

#	End of record

