#	Name: ASD01916385
#	Creating user name:	WinNT
#	Creation time:	15. 06. 2019 20:07

#	Modifying user name:	WinNT
#	Modification time:	15. 06. 2019 20:07

#	Program:	/corina/corina34_cracker 3.40 0067  02.08.2006

@<TRIPOS>MOLECULE
ASD01916385
  31   33    0    0    0
SMALL
NO_CHARGES


@<TRIPOS>ATOM
   1 S1            -0.0211     1.7022     0.0114 S.3     
   2 C2             0.0021    -0.0041     0.0020 C.2     
   3 N3             1.1983    -0.4573    -0.0118 N.2     
   4 C4             2.2084     0.4332    -0.0167 C.ar    
   5 C5             1.7390     1.7516    -0.0051 C.ar    
   6 C6             2.6368     2.8166    -0.0080 C.ar    
   7 C7             3.9920     2.5733    -0.0222 C.ar    
   8 C8             4.4640     1.2686    -0.0338 C.ar    
   9 C9             3.6006     0.2150    -0.0319 C.ar    
  10 C10           -1.2322    -0.8687     0.0096 C.3     
  11 C11           -1.6355    -1.1691     1.4546 C.3     
  12 C12           -2.8411    -2.0137     1.4620 C.1     
  13 C13           -3.8026    -2.6873     1.4679 C.1     
  14 S14           -6.9769    -4.9040     0.8148 S.3     
  15 C15           -6.6061    -4.6640     2.4658 C.2     
  16 N16           -5.5561    -3.9295     2.5912 N.2     
  17 C17           -4.9754    -3.5090     1.4752 C.2     
  18 C18           -5.5889    -3.9254     0.3462 C.2     
  19 C19           -7.3982    -5.2325     3.6149 C.3     
  20 H20            2.2702     3.8324     0.0006 H       
  21 H21            4.6883     3.3988    -0.0248 H       
  22 H22            5.5284     1.0862    -0.0449 H       
  23 H23            3.9854    -0.7941    -0.0410 H       
  24 H24           -2.0454    -0.3456    -0.4934 H       
  25 H25           -1.0242    -1.8034    -0.5113 H       
  26 H26           -0.8223    -1.6923     1.9576 H       
  27 H27           -1.8435    -0.2345     1.9755 H       
  28 H28           -5.2826    -3.6993    -0.6645 H       
  29 H29           -8.2345    -5.8142     3.2272 H       
  30 H30           -6.7557    -5.8761     4.2159 H       
  31 H31           -7.7773    -4.4186     4.2328 H       
@<TRIPOS>BOND
   1    1    2 1
   2    1    5 1
   3    2    3 2
   4    2   10 1
   5    3    4 1
   6    4    5 ar
   7    4    9 ar
   8    5    6 ar
   9    6    7 ar
  10    6   20 1
  11    7    8 ar
  12    7   21 1
  13    8    9 ar
  14    8   22 1
  15    9   23 1
  16   10   11 1
  17   10   24 1
  18   10   25 1
  19   11   12 1
  20   11   26 1
  21   11   27 1
  22   12   13 3
  23   13   17 1
  24   14   15 1
  25   14   18 1
  26   15   16 2
  27   15   19 1
  28   16   17 1
  29   17   18 2
  30   18   28 1
  31   19   29 1
  32   19   30 1
  33   19   31 1

#	End of record

