#	Name: ASD02560093
#	Creating user name:	WinNT
#	Creation time:	15. 06. 2019 20:24

#	Modifying user name:	WinNT
#	Modification time:	15. 06. 2019 20:24

#	Program:	/corina/corina34_cracker 3.40 0067  02.08.2006

@<TRIPOS>MOLECULE
ASD02560093
  38   41    0    0    0
SMALL
NO_CHARGES


@<TRIPOS>ATOM
   1 N1             0.1847    -0.8689     1.4349 N.1     
   2 C2             0.1211     0.1889     1.0255 C.1     
   3 C3             0.0409     1.5222     0.5093 C.2     
   4 C4             1.1749     2.1444    -0.0049 C.2     
   5 C5             1.0721     3.4477    -0.5043 C.2     
   6 C6            -0.1589     4.0964    -0.4779 C.2     
   7 N7            -1.2695     3.4716     0.0315 N.am    
   8 C8            -1.1959     2.2164     0.5128 C.2     
   9 O9            -2.1936     1.6782     0.9612 O.2     
  10 C10           -2.4955     4.1465     0.0468 C.ar    
  11 C11           -2.8500     4.9209     1.1439 C.ar    
  12 C12           -4.0603     5.5860     1.1557 C.ar    
  13 C13           -4.9191     5.4810     0.0769 C.ar    
  14 C14           -4.5694     4.7104    -1.0168 C.ar    
  15 C15           -3.3578     4.0478    -1.0375 C.ar    
  16 N16           -6.2158     6.1948     0.0931 N.pl3   
  17 O17           -6.5254     6.8736     1.0559 O.2     
  18 O18           -6.9733     6.1033    -0.8563 O.2     
  19 C19            0.0545     5.4236    -1.0606 C.ar    
  20 C20            1.4161     5.4964    -1.4072 C.ar    
  21 N21            2.0109     4.3009    -1.0657 N.pl3   
  22 C22            3.4260     3.9789    -1.2657 C.3     
  23 C23            1.9074     6.6615    -1.9904 C.ar    
  24 C24            1.0608     7.7235    -2.2203 C.ar    
  25 C25           -0.2820     7.6463    -1.8764 C.ar    
  26 C26           -0.7863     6.5138    -1.3029 C.ar    
  27 H27            2.1231     1.6275    -0.0179 H       
  28 H28           -2.1800     5.0027     1.9870 H       
  29 H29           -4.3365     6.1883     2.0085 H       
  30 H30           -5.2427     4.6299    -1.8574 H       
  31 H31           -3.0853     3.4461    -1.8919 H       
  32 H32            3.9939     4.2736    -0.3833 H       
  33 H33            3.5353     2.9064    -1.4267 H       
  34 H34            3.8016     4.5170    -2.1360 H       
  35 H35            2.9504     6.7325    -2.2616 H       
  36 H36            1.4456     8.6256    -2.6725 H       
  37 H37           -0.9325     8.4880    -2.0630 H       
  38 H38           -1.8320     6.4603    -1.0384 H       
@<TRIPOS>BOND
   1    1    2 3
   2    2    3 1
   3    3    4 2
   4    3    8 1
   5    4    5 1
   6    4   27 1
   7    5    6 2
   8    5   21 1
   9    6    7 1
  10    6   19 1
  11    7    8 am
  12    7   10 1
  13    8    9 2
  14   10   11 ar
  15   10   15 ar
  16   11   12 ar
  17   11   28 1
  18   12   13 ar
  19   12   29 1
  20   13   14 ar
  21   13   16 1
  22   14   15 ar
  23   14   30 1
  24   15   31 1
  25   16   17 2
  26   16   18 2
  27   19   20 ar
  28   19   26 ar
  29   20   21 1
  30   20   23 ar
  31   21   22 1
  32   22   32 1
  33   22   33 1
  34   22   34 1
  35   23   24 ar
  36   23   35 1
  37   24   25 ar
  38   24   36 1
  39   25   26 ar
  40   25   37 1
  41   26   38 1

#	End of record

