#	Name: ASD01140260
#	Creating user name:	WinNT
#	Creation time:	15. 06. 2019 19:00

#	Modifying user name:	WinNT
#	Modification time:	15. 06. 2019 19:00

#	Program:	/corina/corina34_cracker 3.40 0067  02.08.2006

@<TRIPOS>MOLECULE
ASD01140260
  44   46    0    0    0
SMALL
NO_CHARGES


@<TRIPOS>ATOM
   1 C1            -0.0169     1.3933     0.0097 C.ar    
   2 C2             0.0021    -0.0041     0.0020 C.ar    
   3 C3             1.2180    -0.6764    -0.0138 C.ar    
   4 C4             2.4225     0.0369    -0.0221 C.ar    
   5 C5             2.3941     1.4311    -0.0129 C.ar    
   6 C6             1.1646     2.0957     0.0022 C.ar    
   7 C7            -1.2264    -0.7399     0.0109 C.1     
   8 C8             3.6733    -0.7408    -0.0427 C.2     
   9 C9             3.7366    -1.9510     0.7923 C.2     
  10 C10            4.8101    -2.7862     0.8945 C.2     
  11 C11            4.5973    -3.8447     1.7494 C.2     
  12 C12            3.3917    -3.8735     2.3259 C.2     
  13 S13            2.4434    -2.5472     1.8236 S.3     
  14 N14            4.7174    -0.4402    -0.7386 N.2     
  15 C15            4.7591     0.7454    -1.5939 C.3     
  16 C16            4.6327     1.9716    -0.7316 C.2     
  17 N17            3.5373     2.2145    -0.0155 N.am    
  18 O18            5.5533     2.7600    -0.6882 O.2     
  19 C19           -2.2335    -1.3431     0.0181 C.1     
  20 C20            3.5402     3.4053     0.8377 C.3     
  21 Si21          -3.8634    -2.3195     0.0298 Si      
  22 C22           -3.4938    -4.1454     0.0162 C.3     
  23 C23           -4.8316    -1.8933     1.5634 C.3     
  24 C24           -4.8632    -1.8770    -1.4786 C.3     
  25 H25           -0.9592     1.9209     0.0170 H       
  26 H26            1.2339    -1.7563    -0.0193 H       
  27 H27            1.1425     3.1755     0.0075 H       
  28 H28            5.7348    -2.6330     0.3581 H       
  29 H29            5.3490    -4.5964     1.9397 H       
  30 H30            3.0633    -4.6328     3.0202 H       
  31 H31            5.7062     0.7738    -2.1326 H       
  32 H32            3.9334     0.7121    -2.3047 H       
  33 H33            4.4944     3.9223     0.7368 H       
  34 H34            2.7323     4.0713     0.5347 H       
  35 H35            3.3959     3.1083     1.8765 H       
  36 H36           -2.9088    -4.4042     0.8988 H       
  37 H37           -4.4288    -4.7054     0.0229 H       
  38 H38           -2.9273    -4.3947    -0.8811 H       
  39 H39           -5.0479    -0.8250     1.5714 H       
  40 H40           -5.7666    -2.4534     1.5702 H       
  41 H41           -4.2466    -2.1522     2.4460 H       
  42 H42           -4.2968    -2.1263    -2.3759 H       
  43 H43           -5.7983    -2.4371    -1.4719 H       
  44 H44           -5.0795    -0.8087    -1.4706 H       
@<TRIPOS>BOND
   1    1    2 ar
   2    1    6 ar
   3    1   25 1
   4    2    3 ar
   5    2    7 1
   6    3    4 ar
   7    3   26 1
   8    4    5 ar
   9    4    8 1
  10    5    6 ar
  11    5   17 1
  12    6   27 1
  13    7   19 3
  14    8    9 1
  15    8   14 2
  16    9   10 2
  17    9   13 1
  18   10   11 1
  19   10   28 1
  20   11   12 2
  21   11   29 1
  22   12   13 1
  23   12   30 1
  24   14   15 1
  25   15   16 1
  26   15   31 1
  27   15   32 1
  28   16   17 am
  29   16   18 2
  30   17   20 1
  31   19   21 1
  32   20   33 1
  33   20   34 1
  34   20   35 1
  35   21   22 1
  36   21   23 1
  37   21   24 1
  38   22   36 1
  39   22   37 1
  40   22   38 1
  41   23   39 1
  42   23   40 1
  43   23   41 1
  44   24   42 1
  45   24   43 1
  46   24   44 1

#	End of record

