#	Name: ASD00071013
#	Creating user name:	WinNT
#	Creation time:	15. 06. 2019 18:30

#	Modifying user name:	WinNT
#	Modification time:	15. 06. 2019 18:30

#	Program:	/corina/corina34_cracker 3.40 0067  02.08.2006

@<TRIPOS>MOLECULE
ASD00071013
  39   41    0    0    0
SMALL
NO_CHARGES


@<TRIPOS>ATOM
   1 C1            -0.0173     1.4248     0.0099 C.3     
   2 O2            -0.0228     0.0636    -0.4252 O.3     
   3 C3             1.4017     1.9294     0.0631 C.ar    
   4 C4             1.8051     2.7594     1.0993 C.ar    
   5 C5             3.1119     3.2222     1.1454 C.ar    
   6 C6             4.0085     2.8559     0.1601 C.ar    
   7 C7             3.6040     2.0291    -0.8714 C.ar    
   8 C8             2.3034     1.5614    -0.9164 C.ar    
   9 O9             0.9212     3.1187     2.0670 O.3     
  10 C10            1.4061     3.9754     3.1028 C.3     
  11 N11           -2.1559     4.1753    -1.3242 N.ar    
  12 C12           -1.4549     3.4205    -0.5121 C.ar    
  13 C13           -0.8130     2.2642    -0.9562 C.ar    
  14 C14           -0.9062     1.8942    -2.2668 C.ar    
  15 C15           -1.6594     2.7075    -3.1356 C.ar    
  16 C16           -1.7984     2.3894    -4.4951 C.ar    
  17 C17           -2.5372     3.2038    -5.3064 C.ar    
  18 C18           -3.1550     4.3495    -4.7973 C.ar    
  19 C19           -3.0382     4.6836    -3.4839 C.ar    
  20 C20           -2.2862     3.8690    -2.6194 C.ar    
  21 O21           -2.6723     2.8964    -6.6233 O.3     
  22 C22           -3.4567     3.7864    -7.4200 C.3     
  23 Cl23          -1.3228     3.8720     1.1589 Cl      
  24 H24           -0.4639     1.4909     1.0020 H       
  25 H25            0.3608    -0.0704    -1.3027 H       
  26 H26            3.4282     3.8687     1.9507 H       
  27 H27            5.0261     3.2159     0.1956 H       
  28 H28            4.3061     1.7445    -1.6411 H       
  29 H29            1.9911     0.9118    -1.7206 H       
  30 H30            1.7582     4.9100     2.6662 H       
  31 H31            0.6015     4.1843     3.8080 H       
  32 H32            2.2283     3.4855     3.6244 H       
  33 H33           -0.4155     1.0024    -2.6277 H       
  34 H34           -1.3242     1.5067    -4.8978 H       
  35 H35           -3.7336     4.9793    -5.4568 H       
  36 H36           -3.5218     5.5724    -3.1062 H       
  37 H37           -4.4712     3.8303    -7.0239 H       
  38 H38           -3.0138     4.7821    -7.3956 H       
  39 H39           -3.4835     3.4258    -8.4483 H       
@<TRIPOS>BOND
   1    1    2 1
   2    1    3 1
   3    1   13 1
   4    1   24 1
   5    2   25 1
   6    3    4 ar
   7    3    8 ar
   8    4    5 ar
   9    4    9 1
  10    5    6 ar
  11    5   26 1
  12    6    7 ar
  13    6   27 1
  14    7    8 ar
  15    7   28 1
  16    8   29 1
  17    9   10 1
  18   10   30 1
  19   10   31 1
  20   10   32 1
  21   11   12 ar
  22   11   20 ar
  23   12   13 ar
  24   12   23 1
  25   13   14 ar
  26   14   15 ar
  27   14   33 1
  28   15   16 ar
  29   15   20 ar
  30   16   17 ar
  31   16   34 1
  32   17   18 ar
  33   17   21 1
  34   18   19 ar
  35   18   35 1
  36   19   20 ar
  37   19   36 1
  38   21   22 1
  39   22   37 1
  40   22   38 1
  41   22   39 1

#	End of record

