#	Name: ASD03330186
#	Creating user name:	WinNT
#	Creation time:	15. 06. 2019 20:36

#	Modifying user name:	WinNT
#	Modification time:	15. 06. 2019 20:36

#	Program:	/corina/corina34_cracker 3.40 0067  02.08.2006

@<TRIPOS>MOLECULE
ASD03330186
  52   56    0    0    0
SMALL
NO_CHARGES


@<TRIPOS>ATOM
   1 C1            -0.6017     0.6216    -2.9995 C.ar    
   2 C2            -0.3267    -0.1322    -1.8610 C.ar    
   3 C3            -1.3674    -0.6398    -1.1011 C.ar    
   4 C4            -2.6817    -0.3968    -1.4749 C.ar    
   5 C5            -2.9528     0.3549    -2.6103 C.ar    
   6 C6            -1.9152     0.8578    -3.3717 C.ar    
   7 N7            -3.7351    -0.9105    -0.7067 N.am    
   8 C8            -4.8891    -0.2225    -0.5997 C.2     
   9 N9            -5.9389    -0.7642     0.0491 N.am    
  10 O10           -4.9831     0.8868    -1.0886 O.2     
  11 C11           -7.0996    -0.0097     0.2545 C.ar    
  12 C12           -8.3389    -0.6310     0.2577 C.ar    
  13 C13           -9.4912     0.1239     0.4630 C.ar    
  14 C14           -9.3919     1.4995     0.6641 C.ar    
  15 C15           -8.1538     2.1107     0.6590 C.ar    
  16 C16           -7.0097     1.3616     0.4611 C.ar    
  17 C17          -10.8206    -0.5343     0.4671 C.ar    
  18 N18          -10.9059    -1.8452     0.2743 N.ar    
  19 C19          -11.9658     0.2271     0.6787 C.ar    
  20 C20          -13.2035    -0.3977     0.6812 C.ar    
  21 C21          -13.2560    -1.7649     0.4718 C.ar    
  22 C22          -12.0721    -2.4693     0.2713 C.ar    
  23 N23          -12.1166    -3.8423     0.0599 N.3     
  24 C24          -10.7616    -4.3919    -0.1294 C.3     
  25 C25          -10.5617    -5.4919     0.9343 C.3     
  26 C26          -12.0151    -5.8946     1.2981 C.3     
  27 C27          -12.7498    -4.5342     1.2028 C.3     
  28 O28            0.5813     1.0017    -3.5670 O.3     
  29 C29            1.5753     0.8200    -2.5413 C.3     
  30 O30            1.0275    -0.2244    -1.7153 O.3     
  31 H31           -1.1562    -1.2247    -0.2182 H       
  32 H32           -3.9758     0.5434    -2.9009 H       
  33 H33           -2.1285     1.4423    -4.2545 H       
  34 H34           -3.6337    -1.7613    -0.2520 H       
  35 H35           -5.8899    -1.6769     0.3738 H       
  36 H36           -8.4107    -1.6972     0.1011 H       
  37 H37          -10.2837     2.0875     0.8235 H       
  38 H38           -8.0791     3.1768     0.8147 H       
  39 H39           -6.0436     1.8444     0.4584 H       
  40 H40          -11.8914     1.2924     0.8396 H       
  41 H41          -14.1076     0.1704     0.8434 H       
  42 H42          -14.2050    -2.2803     0.4680 H       
  43 H43          -10.6713    -4.8205    -1.1276 H       
  44 H44          -10.0198    -3.6050     0.0070 H       
  45 H45          -10.0204    -6.3399     0.5147 H       
  46 H46          -10.0420    -5.0949     1.8063 H       
  47 H47          -12.4155    -6.6060     0.5759 H       
  48 H48          -12.0672    -6.2965     2.3099 H       
  49 H49          -12.6078    -3.9612     2.1191 H       
  50 H50          -13.8117    -4.6889     1.0116 H       
  51 H51            2.5232     0.5054    -2.9780 H       
  52 H52            1.7033     1.7365    -1.9653 H       
@<TRIPOS>BOND
   1    1    2 ar
   2    1   28 1
   3    1    6 ar
   4    2    3 ar
   5    2   30 1
   6    3    4 ar
   7    3   31 1
   8    4    5 ar
   9    4    7 1
  10    5    6 ar
  11    5   32 1
  12    6   33 1
  13    7    8 am
  14    7   34 1
  15    8    9 am
  16    8   10 2
  17    9   11 1
  18    9   35 1
  19   11   12 ar
  20   11   16 ar
  21   12   13 ar
  22   12   36 1
  23   13   14 ar
  24   13   17 1
  25   14   15 ar
  26   14   37 1
  27   15   16 ar
  28   15   38 1
  29   16   39 1
  30   17   18 ar
  31   17   19 ar
  32   18   22 ar
  33   19   20 ar
  34   19   40 1
  35   20   21 ar
  36   20   41 1
  37   21   22 ar
  38   21   42 1
  39   22   23 1
  40   23   24 1
  41   23   27 1
  42   24   25 1
  43   24   43 1
  44   24   44 1
  45   25   26 1
  46   25   45 1
  47   25   46 1
  48   26   27 1
  49   26   47 1
  50   26   48 1
  51   27   49 1
  52   27   50 1
  53   28   29 1
  54   29   30 1
  55   29   51 1
  56   29   52 1

#	End of record

