#	Name: ASD02560336
#	Creating user name:	WinNT
#	Creation time:	15. 06. 2019 20:25

#	Modifying user name:	WinNT
#	Modification time:	15. 06. 2019 20:25

#	Program:	/corina/corina34_cracker 3.40 0067  02.08.2006

@<TRIPOS>MOLECULE
ASD02560336
  42   45    0    0    0
SMALL
NO_CHARGES


@<TRIPOS>ATOM
   1 C1             0.1355     1.3888     1.1052 C.2     
   2 C2             0.1570    -0.0177     1.0937 C.2     
   3 C3             1.2851    -0.6791     0.7677 C.2     
   4 N4             2.4257     0.0057     0.4436 N.pl3   
   5 C5             2.4350     1.3821     0.4461 C.2     
   6 C6             1.2584     2.0843     0.7857 C.2     
   7 C7             3.6773    -0.4094     0.0836 C.2     
   8 C8             4.4297     0.7280    -0.1276 C.2     
   9 N9             3.6426     1.7961     0.1018 N.2     
  10 C10            5.8525     0.7670    -0.5346 C.2     
  11 N11            4.1101    -1.7271    -0.0453 N.3     
  12 C12            2.9864    -2.6649     0.0795 C.3     
  13 C13            3.3264    -3.9680    -0.6467 C.3     
  14 C14            2.1560    -4.9447    -0.5167 C.3     
  15 C15            1.8981    -5.2377     0.9627 C.3     
  16 C16            1.5580    -3.9346     1.6889 C.3     
  17 C17            2.7284    -2.9579     1.5589 C.3     
  18 N18            6.7556    -0.1637    -0.3358 N.2     
  19 C19            6.5168     1.8199    -1.2266 C.2     
  20 C20            7.7859     1.3740    -1.3569 C.2     
  21 O21            7.8299     0.1617    -0.7851 O.3     
  22 C22            8.9293     2.0972    -2.0207 C.3     
  23 H23           -0.7721     1.9144     1.3628 H       
  24 H24           -0.7353    -0.5705     1.3480 H       
  25 H25            1.2896    -1.7591     0.7624 H       
  26 H26            1.2507     3.1642     0.7916 H       
  27 H27            4.5997    -1.8633    -0.9170 H       
  28 H28            2.0940    -2.2238    -0.3645 H       
  29 H29            3.5102    -3.7593    -1.7006 H       
  30 H30            4.2188    -4.4091    -0.2027 H       
  31 H31            1.2636    -4.5036    -0.9607 H       
  32 H32            2.3983    -5.8731    -1.0340 H       
  33 H33            1.0642    -5.9335     1.0553 H       
  34 H34            2.7905    -5.6788     1.4067 H       
  35 H35            0.6656    -3.4935     1.2449 H       
  36 H36            1.3742    -4.1433     2.7428 H       
  37 H37            3.6208    -3.3990     2.0029 H       
  38 H38            2.4862    -2.0296     2.0762 H       
  39 H39            6.1025     2.7570    -1.5680 H       
  40 H40            9.4503     2.7076    -1.2831 H       
  41 H41            9.6217     1.3701    -2.4450 H       
  42 H42            8.5429     2.7370    -2.8141 H       
@<TRIPOS>BOND
   1    1    2 1
   2    1    6 2
   3    1   23 1
   4    2    3 2
   5    2   24 1
   6    3    4 1
   7    3   25 1
   8    4    5 1
   9    4    7 1
  10    5    6 1
  11    5    9 2
  12    6   26 1
  13    7    8 2
  14    7   11 1
  15    8    9 1
  16    8   10 1
  17   10   18 2
  18   10   19 1
  19   11   12 1
  20   11   27 1
  21   12   13 1
  22   12   17 1
  23   12   28 1
  24   13   14 1
  25   13   29 1
  26   13   30 1
  27   14   15 1
  28   14   31 1
  29   14   32 1
  30   15   16 1
  31   15   33 1
  32   15   34 1
  33   16   17 1
  34   16   35 1
  35   16   36 1
  36   17   37 1
  37   17   38 1
  38   18   21 1
  39   19   20 2
  40   19   39 1
  41   20   21 1
  42   20   22 1
  43   22   40 1
  44   22   41 1
  45   22   42 1

#	End of record

