#	Name: ASD00311368
#	Creating user name:	WinNT
#	Creation time:	15. 06. 2019 18:34

#	Modifying user name:	WinNT
#	Modification time:	15. 06. 2019 18:34

#	Program:	/corina/corina34_cracker 3.40 0067  02.08.2006

@<TRIPOS>MOLECULE
ASD00311368
  33   36    0    0    0
SMALL
NO_CHARGES


@<TRIPOS>ATOM
   1 C1            -0.0167     1.3776     0.0096 C.2     
   2 C2             0.0021    -0.0041     0.0020 C.2     
   3 C3             1.2583    -0.6767    -0.0136 C.2     
   4 C4             2.4314     0.0670    -0.0208 C.2     
   5 C5             2.3576     1.4748    -0.0125 C.2     
   6 N6             1.1651     2.0901     0.0022 N.am    
   7 C7            -1.3440    -0.5756     0.0118 C.2     
   8 C8            -2.3241     0.3277     0.0260 C.2     
   9 S9            -1.6789     1.9571     0.0358 S.3     
  10 O10            3.3825     2.1368    -0.0187 O.2     
  11 C11            3.7474    -0.6126    -0.0365 C.ar    
  12 C12            4.5932    -0.4754    -1.1370 C.ar    
  13 C13            5.8179    -1.1110    -1.1457 C.ar    
  14 C14            6.2072    -1.8835    -0.0661 C.ar    
  15 C15            5.3726    -2.0234     1.0284 C.ar    
  16 C16            4.1482    -1.3877     1.0516 C.ar    
  17 O17            1.3079    -2.0292    -0.0209 O.3     
  18 O18           -1.0483    -2.9241    -0.8401 O.3     
  19 C19           -1.5961    -2.0306     0.0056 C.2     
  20 C20           -2.4215    -2.7014     0.8537 C.2     
  21 C21           -2.3581    -4.0624     0.4901 C.2     
  22 C22           -1.5072    -4.1539    -0.5497 C.2     
  23 H23            1.1330     3.0595     0.0073 H       
  24 H24           -3.3769     0.0872     0.0344 H       
  25 H25            4.2900     0.1268    -1.9807 H       
  26 H26            6.4737    -1.0055    -1.9973 H       
  27 H27            7.1664    -2.3796    -0.0778 H       
  28 H28            5.6819    -2.6280     1.8681 H       
  29 H29            3.4996    -1.4937     1.9086 H       
  30 H30            2.2051    -2.3898    -0.0314 H       
  31 H31           -3.0108    -2.2743     1.6515 H       
  32 H32           -2.8912    -4.8773     0.9572 H       
  33 H33           -1.2385    -5.0642    -1.0651 H       
@<TRIPOS>BOND
   1    1    2 2
   2    1    6 1
   3    1    9 1
   4    2    3 1
   5    2    7 1
   6    3    4 2
   7    3   17 1
   8    4    5 1
   9    4   11 1
  10    5    6 am
  11    5   10 2
  12    6   23 1
  13    7    8 2
  14    7   19 1
  15    8    9 1
  16    8   24 1
  17   11   12 ar
  18   11   16 ar
  19   12   13 ar
  20   12   25 1
  21   13   14 ar
  22   13   26 1
  23   14   15 ar
  24   14   27 1
  25   15   16 ar
  26   15   28 1
  27   16   29 1
  28   17   30 1
  29   18   19 1
  30   18   22 1
  31   19   20 2
  32   20   21 1
  33   20   31 1
  34   21   22 2
  35   21   32 1
  36   22   33 1

#	End of record

