#	Name: ASD05380314
#	Creating user name:	WinNT
#	Creation time:	15. 06. 2019 20:59

#	Modifying user name:	WinNT
#	Modification time:	15. 06. 2019 20:59

#	Program:	/corina/corina34_cracker 3.40 0067  02.08.2006

@<TRIPOS>MOLECULE
ASD05380314
  75   76    0    0    0
SMALL
NO_CHARGES


@<TRIPOS>ATOM
   1 O1            -0.0177     1.4528     0.0100 O.3     
   2 C2             0.0021    -0.0041     0.0020 C.3     
   3 C3             1.5020    -0.3567    -0.0142 C.3     
   4 N4             2.1699     0.9539    -0.0135 N.am    
   5 C5             1.2373     1.9159     0.0005 C.2     
   6 C6            -0.6788    -0.5349    -1.2332 C.ar    
   7 C7            -1.4703    -1.6657    -1.1530 C.ar    
   8 C8            -2.0956    -2.1542    -2.2838 C.ar    
   9 C9            -1.9286    -1.5092    -3.5007 C.ar    
  10 C10           -1.1339    -0.3748    -3.5785 C.ar    
  11 C11           -0.5154     0.1130    -2.4437 C.ar    
  12 O12           -2.5423    -1.9881    -4.6147 O.3     
  13 C13           -2.3255    -1.2732    -5.8329 C.3     
  14 C14           -3.0907    -1.9563    -6.9681 C.3     
  15 O15           -4.4948    -1.8631    -6.7198 O.3     
  16 Si16          -5.4194    -2.5598    -7.8687 Si      
  17 O17            1.5068     3.1008     0.0035 O.2     
  18 C18            1.8803    -1.1534     1.2360 C.3     
  19 O19            3.2449    -1.5673     1.1422 O.3     
  20 Si20           3.7661    -2.4298     2.4247 Si      
  21 C21            2.7345    -3.9715     2.5968 C.3     
  22 C22            5.5505    -2.9016     2.1719 C.3     
  23 C23            3.6086    -1.4014     3.9701 C.3     
  24 C24            6.3977    -1.6354     2.0304 C.3     
  25 C25            6.0395    -3.7107     3.3749 C.3     
  26 C26            5.6799    -3.7462     0.9027 C.3     
  27 C27           -5.0955    -1.7382    -9.5091 C.3     
  28 C28           -5.0013    -4.3713    -7.9883 C.3     
  29 C29           -7.2174    -2.3657    -7.4212 C.3     
  30 C30           -7.5607    -0.8779    -7.3230 C.3     
  31 C31           -8.0847    -3.0192    -8.4989 C.3     
  32 C32           -7.4833    -3.0404    -6.0740 C.3     
  33 H33           -0.4733    -0.3976     0.9005 H       
  34 H34            1.7544    -0.9146    -0.9159 H       
  35 H35            3.1291     1.0981    -0.0216 H       
  36 H36           -1.5997    -2.1676    -0.2055 H       
  37 H37           -2.7135    -3.0377    -2.2207 H       
  38 H38           -1.0024     0.1291    -4.5247 H       
  39 H39            0.1031     0.9964    -2.5037 H       
  40 H40           -2.6800    -0.2486    -5.7208 H       
  41 H41           -1.2606    -1.2659    -6.0653 H       
  42 H42           -2.8553    -1.4649    -7.9122 H       
  43 H43           -2.8001    -3.0055    -7.0223 H       
  44 H44            1.7504    -0.5274     2.1189 H       
  45 H45            1.2390    -2.0311     1.3154 H       
  46 H46            2.8267    -4.5732     1.6926 H       
  47 H47            3.0829    -4.5479     3.4539 H       
  48 H48            1.6905    -3.6955     2.7447 H       
  49 H49            2.5646    -1.1254     4.1180 H       
  50 H50            3.9569    -1.9778     4.8271 H       
  51 H51            4.2121    -0.4994     3.8694 H       
  52 H52            6.3056    -1.0337     2.9347 H       
  53 H53            7.4418    -1.9115     1.8825 H       
  54 H54            6.0494    -1.0590     1.1734 H       
  55 H55            5.4360    -4.6127     3.4756 H       
  56 H56            7.0836    -3.9867     3.2270 H       
  57 H57            5.9474    -3.1090     4.2791 H       
  58 H58            5.3316    -3.1698     0.0456 H       
  59 H59            6.7239    -4.0222     0.7547 H       
  60 H60            5.0763    -4.6482     1.0034 H       
  61 H61           -4.0436    -1.8518    -9.7710 H       
  62 H62           -5.7134    -2.2038   -10.2769 H       
  63 H63           -5.3401    -0.6783    -9.4392 H       
  64 H64           -5.1908    -4.8521    -7.0285 H       
  65 H65           -5.6192    -4.8369    -8.7561 H       
  66 H66           -3.9493    -4.4849    -8.2501 H       
  67 H67           -7.3712    -0.3972    -8.2827 H       
  68 H68           -8.6127    -0.7643    -7.0611 H       
  69 H69           -6.9428    -0.4123    -6.5552 H       
  70 H70           -7.8400    -4.0791    -8.5689 H       
  71 H71           -9.1366    -2.9056    -8.2371 H       
  72 H72           -7.8952    -2.5385    -9.4587 H       
  73 H73           -6.8655    -2.5748    -5.3062 H       
  74 H74           -8.5353    -2.9268    -5.8121 H       
  75 H75           -7.2387    -4.1003    -6.1439 H       
@<TRIPOS>BOND
   1    1    2 1
   2    1    5 1
   3    2    3 1
   4    2    6 1
   5    2   33 1
   6    3    4 1
   7    3   18 1
   8    3   34 1
   9    4    5 am
  10    4   35 1
  11    5   17 2
  12    6    7 ar
  13    6   11 ar
  14    7    8 ar
  15    7   36 1
  16    8    9 ar
  17    8   37 1
  18    9   10 ar
  19    9   12 1
  20   10   11 ar
  21   10   38 1
  22   11   39 1
  23   12   13 1
  24   13   14 1
  25   13   40 1
  26   13   41 1
  27   14   15 1
  28   14   42 1
  29   14   43 1
  30   15   16 1
  31   16   27 1
  32   16   28 1
  33   16   29 1
  34   18   19 1
  35   18   44 1
  36   18   45 1
  37   19   20 1
  38   20   21 1
  39   20   22 1
  40   20   23 1
  41   21   46 1
  42   21   47 1
  43   21   48 1
  44   22   24 1
  45   22   25 1
  46   22   26 1
  47   23   49 1
  48   23   50 1
  49   23   51 1
  50   24   52 1
  51   24   53 1
  52   24   54 1
  53   25   55 1
  54   25   56 1
  55   25   57 1
  56   26   58 1
  57   26   59 1
  58   26   60 1
  59   27   61 1
  60   27   62 1
  61   27   63 1
  62   28   64 1
  63   28   65 1
  64   28   66 1
  65   29   30 1
  66   29   31 1
  67   29   32 1
  68   30   67 1
  69   30   68 1
  70   30   69 1
  71   31   70 1
  72   31   71 1
  73   31   72 1
  74   32   73 1
  75   32   74 1
  76   32   75 1

#	End of record

