#	Name: ASD03090770
#	Creating user name:	WinNT
#	Creation time:	15. 06. 2019 20:29

#	Modifying user name:	WinNT
#	Modification time:	15. 06. 2019 20:29

#	Program:	/corina/corina34_cracker 3.40 0067  02.08.2006

@<TRIPOS>MOLECULE
ASD03090770
  44   46    0    0    0
SMALL
NO_CHARGES


@<TRIPOS>ATOM
   1 O1            -0.0173     1.4248     0.0099 O.3     
   2 C2             0.0021    -0.0041     0.0020 C.3     
   3 C3            -1.4333    -0.5336     0.0129 C.3     
   4 C4            -2.1755     0.0508     1.1870 C.ar    
   5 C5            -2.3452    -0.6969     2.3377 C.ar    
   6 C6            -3.0252    -0.1634     3.4154 C.ar    
   7 C7            -3.5379     1.1236     3.3425 C.ar    
   8 C8            -3.3663     1.8718     2.1868 C.ar    
   9 C9            -2.6806     1.3358     1.1139 C.ar    
  10 O10           -4.2076     1.6505     4.4011 O.3     
  11 C11           -4.7079     2.9811     4.2552 C.3     
  12 F12           -5.6048     3.0271     3.1825 F       
  13 F13           -5.3654     3.3635     5.4295 F       
  14 F14           -3.6434     3.8554     4.0110 F       
  15 N15           -2.1054    -0.1483    -1.2305 N.am    
  16 C16           -1.9698    -0.9103    -2.3339 C.2     
  17 O17           -1.2914    -1.9150    -2.2975 O.2     
  18 C18           -2.6612    -0.5139    -3.6130 C.3     
  19 C19           -1.7823    -0.0538    -4.7778 C.3     
  20 C20           -2.4684    -1.4203    -4.8304 C.3     
  21 C21           -3.6343    -1.5778    -5.7722 C.ar    
  22 C22           -4.1787    -2.8287    -5.9951 C.ar    
  23 C23           -5.2481    -2.9731    -6.8591 C.ar    
  24 C24           -5.7734    -1.8666    -7.4998 C.ar    
  25 C25           -5.2295    -0.6155    -7.2762 C.ar    
  26 C26           -4.1629    -0.4705    -6.4089 C.ar    
  27 H27            0.8606     1.8301     0.0037 H       
  28 H28            0.5123    -0.3556    -0.8948 H       
  29 H29            0.5293    -0.3651     0.8851 H       
  30 H30           -1.4190    -1.6203     0.0965 H       
  31 H31           -1.9462    -1.6989     2.3938 H       
  32 H32           -3.1579    -0.7479     4.3138 H       
  33 H33           -3.7645     2.8739     2.1276 H       
  34 H34           -2.5467     1.9178     0.2140 H       
  35 H35           -2.6480     0.6552    -1.2597 H       
  36 H36           -3.6311    -0.0312    -3.4930 H       
  37 H37           -2.1742     0.7313    -5.4244 H       
  38 H38           -0.7041    -0.0378    -4.6190 H       
  39 H39           -1.8416    -2.3033    -4.7062 H       
  40 H40           -3.7683    -3.6932    -5.4946 H       
  41 H41           -5.6730    -3.9505    -7.0338 H       
  42 H42           -6.6084    -1.9795    -8.1753 H       
  43 H43           -5.6397     0.2490    -7.7770 H       
  44 H44           -3.7380     0.5070    -6.2342 H       
@<TRIPOS>BOND
   1    1    2 1
   2    1   27 1
   3    2    3 1
   4    2   28 1
   5    2   29 1
   6    3    4 1
   7    3   15 1
   8    3   30 1
   9    4    5 ar
  10    4    9 ar
  11    5    6 ar
  12    5   31 1
  13    6    7 ar
  14    6   32 1
  15    7    8 ar
  16    7   10 1
  17    8    9 ar
  18    8   33 1
  19    9   34 1
  20   10   11 1
  21   11   12 1
  22   11   13 1
  23   11   14 1
  24   15   16 am
  25   15   35 1
  26   16   17 2
  27   16   18 1
  28   18   19 1
  29   18   20 1
  30   18   36 1
  31   19   20 1
  32   19   37 1
  33   19   38 1
  34   20   21 1
  35   20   39 1
  36   21   22 ar
  37   21   26 ar
  38   22   23 ar
  39   22   40 1
  40   23   24 ar
  41   23   41 1
  42   24   25 ar
  43   24   42 1
  44   25   26 ar
  45   25   43 1
  46   26   44 1

#	End of record

