#	Name: ASD08070588
#	Creating user name:	WinNT
#	Creation time:	15. 06. 2019 21:15

#	Modifying user name:	WinNT
#	Modification time:	15. 06. 2019 21:15

#	Program:	/corina/corina34_cracker 3.40 0067  02.08.2006

@<TRIPOS>MOLECULE
ASD08070588
  41   43    0    0    0
SMALL
NO_CHARGES


@<TRIPOS>ATOM
   1 O1            -0.0174     1.4354     0.0099 O.3     
   2 C2             0.0021    -0.0041     0.0020 C.3     
   3 O3             1.2438    -0.3266    -0.6516 O.3     
   4 C4             2.0691     0.7335    -0.4082 C.ar    
   5 C5             1.2912     1.8185    -0.0005 C.ar    
   6 C6             1.8951     3.0290     0.3108 C.ar    
   7 C7             3.2633     3.1655     0.2185 C.ar    
   8 C8             4.0471     2.0840    -0.1895 C.ar    
   9 C9             3.4405     0.8645    -0.5026 C.ar    
  10 C10            5.5127     2.2285    -0.2894 C.2     
  11 O11            6.1937     1.2859    -0.6447 O.2     
  12 N12            6.0961     3.4052     0.0132 N.am    
  13 C13            7.5507     3.5485    -0.0859 C.3     
  14 C14            7.9039     5.0201    -0.3108 C.3     
  15 C15            9.4231     5.1698    -0.4144 C.3     
  16 C16           10.0732     4.6816     0.8817 C.3     
  17 C17            9.7199     3.2100     1.1066 C.3     
  18 C18            8.2008     3.0603     1.2101 C.3     
  19 C19            9.9388     4.3363    -1.5892 C.3     
  20 C20            7.2538     5.5084    -1.6069 C.3     
  21 H21           -0.0068    -0.3927     1.0203 H       
  22 H22           -0.8423    -0.3953    -0.5655 H       
  23 H23            1.2907     3.8666     0.6262 H       
  24 H24            3.7294     4.1091     0.4612 H       
  25 H25            4.0434     0.0258    -0.8180 H       
  26 H26            5.5528     4.1571     0.2967 H       
  27 H27            7.9181     2.9547    -0.9229 H       
  28 H28            7.5365     5.6140     0.5261 H       
  29 H29            9.6747     6.2182    -0.5746 H       
  30 H30           11.1554     4.7883     0.8079 H       
  31 H31            9.7058     5.2755     1.7186 H       
  32 H32           10.0873     2.6162     0.2697 H       
  33 H33           10.1831     2.8622     2.0299 H       
  34 H34            7.8334     3.6542     2.0471 H       
  35 H35            7.9491     2.0119     1.3704 H       
  36 H36            9.4756     4.6841    -2.5125 H       
  37 H37           11.0210     4.4429    -1.6629 H       
  38 H38            9.6871     3.2879    -1.4289 H       
  39 H39            6.1715     5.4017    -1.5331 H       
  40 H40            7.5055     6.5567    -1.7671 H       
  41 H41            7.6212     4.9145    -2.4438 H       
@<TRIPOS>BOND
   1    1    2 1
   2    1    5 1
   3    2    3 1
   4    2   21 1
   5    2   22 1
   6    3    4 1
   7    4    5 ar
   8    4    9 ar
   9    5    6 ar
  10    6    7 ar
  11    6   23 1
  12    7    8 ar
  13    7   24 1
  14    8    9 ar
  15    8   10 1
  16    9   25 1
  17   10   11 2
  18   10   12 am
  19   12   13 1
  20   12   26 1
  21   13   14 1
  22   13   18 1
  23   13   27 1
  24   14   15 1
  25   14   20 1
  26   14   28 1
  27   15   16 1
  28   15   19 1
  29   15   29 1
  30   16   17 1
  31   16   30 1
  32   16   31 1
  33   17   18 1
  34   17   32 1
  35   17   33 1
  36   18   34 1
  37   18   35 1
  38   19   36 1
  39   19   37 1
  40   19   38 1
  41   20   39 1
  42   20   40 1
  43   20   41 1

#	End of record

