#	Name: ASD06660116
#	Creating user name:	WinNT
#	Creation time:	15. 06. 2019 21:08

#	Modifying user name:	WinNT
#	Modification time:	15. 06. 2019 21:08

#	Program:	/corina/corina34_cracker 3.40 0067  02.08.2006

@<TRIPOS>MOLECULE
ASD06660116
  75   78    0    0    0
SMALL
NO_CHARGES


@<TRIPOS>ATOM
   1 C1             0.0437     1.6584     0.9481 C.2     
   2 C2            -0.0044     0.2645     0.3773 C.3     
   3 C3            -1.0838     0.1934    -0.7047 C.3     
   4 O4             1.0603     2.3070     0.8735 O.2     
   5 O5            -1.0446     2.1814     1.5344 O.3     
   6 N6             1.2966    -0.0686    -0.2081 N.am    
   7 C7             2.3251    -0.4178     0.5898 C.2     
   8 C8             3.6613    -0.6657     0.0076 C.ar    
   9 C9             4.0687    -1.9689    -0.2829 C.ar    
  10 C10            5.3165    -2.1931    -0.8264 C.ar    
  11 C11            6.1639    -1.1298    -1.0833 C.ar    
  12 C12            5.7665     0.1641    -0.7974 C.ar    
  13 C13            4.5186     0.4027    -0.2593 C.ar    
  14 O14            2.1541    -0.5291     1.7881 O.2     
  15 C15            7.5259    -1.3824    -1.6768 C.3     
  16 F16            7.4398    -1.3489    -3.0727 F       
  17 F17            8.4152    -0.3943    -1.2406 F       
  18 F18            7.9871    -2.6383    -1.2679 F       
  19 C19            4.0849     1.8134     0.0458 C.3     
  20 C20            3.1475    -3.1282    -0.0029 C.3     
  21 C21            2.2154    -3.3391    -1.1977 C.3     
  22 C22           -1.2226    -1.2289    -1.1830 C.ar    
  23 C23           -2.0898    -2.0920    -0.5385 C.ar    
  24 C24           -2.2195    -3.3960    -0.9743 C.ar    
  25 C25           -1.4775    -3.8404    -2.0614 C.ar    
  26 C26           -0.6073    -2.9708    -2.7065 C.ar    
  27 C27           -0.4867    -1.6664    -2.2690 C.ar    
  28 N28           -1.6059    -5.1588    -2.5044 N.3     
  29 C29           -0.7351    -5.4130    -3.6593 C.3     
  30 C30           -1.0077    -6.8160    -4.2063 C.3     
  31 C31           -0.7425    -7.8478    -3.1065 C.3     
  32 C32           -1.6267    -7.5318    -1.8971 C.3     
  33 C33           -1.3362    -6.1080    -1.4170 C.3     
  34 C34           -1.0666    -9.2267    -3.6209 C.2     
  35 N35           -0.9080   -10.2992    -2.8201 N.am    
  36 O36           -1.4701    -9.3714    -4.7551 O.2     
  37 C37           -1.2052   -11.5633    -3.2917 C.2     
  38 N38           -1.6376   -11.7806    -4.4890 N.2     
  39 C39           -1.8618   -13.2186    -4.6920 C.3     
  40 C40           -1.4688   -13.8512    -3.3421 C.3     
  41 N41           -1.0609   -12.6911    -2.5321 N.pl3   
  42 H42           -0.2381    -0.4452     1.1709 H       
  43 H43           -2.0342     0.5325    -0.2926 H       
  44 H44           -0.8020     0.8323    -1.5416 H       
  45 H45           -0.9655     3.0789     1.8857 H       
  46 H46            1.4178    -0.0378    -1.1700 H       
  47 H47            5.6329    -3.2009    -1.0516 H       
  48 H48            6.4328     0.9896    -0.9999 H       
  49 H49            4.3770     2.0711     1.0638 H       
  50 H50            4.5621     2.4996    -0.6538 H       
  51 H51            3.0020     1.8897    -0.0518 H       
  52 H52            3.7376    -4.0298     0.1612 H       
  53 H53            2.5551    -2.9148     0.8869 H       
  54 H54            1.4848    -4.1113    -0.9567 H       
  55 H55            1.6976    -2.4069    -1.4236 H       
  56 H56            2.7997    -3.6494    -2.0640 H       
  57 H57           -2.6661    -1.7459     0.3068 H       
  58 H58           -2.8967    -4.0697    -0.4703 H       
  59 H59           -0.0290    -3.3131    -3.5519 H       
  60 H60            0.1861    -0.9885    -2.7731 H       
  61 H61           -0.9368    -4.6749    -4.4356 H       
  62 H62            0.3078    -5.3397    -3.3509 H       
  63 H63           -2.0469    -6.8857    -4.5277 H       
  64 H64           -0.3503    -7.0102    -5.0538 H       
  65 H65            0.3062    -7.8050    -2.8122 H       
  66 H66           -2.6757    -7.6128    -2.1822 H       
  67 H67           -1.4116    -8.2375    -1.0947 H       
  68 H68           -0.2905    -6.0315    -1.1191 H       
  69 H69           -1.9744    -5.8748    -0.5647 H       
  70 H70           -0.5852   -10.1834    -1.9128 H       
  71 H71           -2.9107   -13.4142    -4.9148 H       
  72 H72           -1.2236   -13.5959    -5.4911 H       
  73 H73           -2.3222   -14.3583    -2.8919 H       
  74 H74           -0.6336   -14.5401    -3.4688 H       
  75 H75           -0.7461   -12.7216    -1.6151 H       
@<TRIPOS>BOND
   1    1    2 1
   2    1    4 2
   3    1    5 1
   4    2    3 1
   5    2    6 1
   6    2   42 1
   7    3   22 1
   8    3   43 1
   9    3   44 1
  10    5   45 1
  11    6    7 am
  12    6   46 1
  13    7    8 1
  14    7   14 2
  15    8    9 ar
  16    8   13 ar
  17    9   10 ar
  18    9   20 1
  19   10   11 ar
  20   10   47 1
  21   11   12 ar
  22   11   15 1
  23   12   13 ar
  24   12   48 1
  25   13   19 1
  26   15   16 1
  27   15   17 1
  28   15   18 1
  29   19   49 1
  30   19   50 1
  31   19   51 1
  32   20   21 1
  33   20   52 1
  34   20   53 1
  35   21   54 1
  36   21   55 1
  37   21   56 1
  38   22   23 ar
  39   22   27 ar
  40   23   24 ar
  41   23   57 1
  42   24   25 ar
  43   24   58 1
  44   25   26 ar
  45   25   28 1
  46   26   27 ar
  47   26   59 1
  48   27   60 1
  49   28   29 1
  50   28   33 1
  51   29   30 1
  52   29   61 1
  53   29   62 1
  54   30   31 1
  55   30   63 1
  56   30   64 1
  57   31   32 1
  58   31   34 1
  59   31   65 1
  60   32   33 1
  61   32   66 1
  62   32   67 1
  63   33   68 1
  64   33   69 1
  65   34   35 am
  66   34   36 2
  67   35   37 1
  68   35   70 1
  69   37   38 2
  70   37   41 1
  71   38   39 1
  72   39   40 1
  73   39   71 1
  74   39   72 1
  75   40   41 1
  76   40   73 1
  77   40   74 1
  78   41   75 1

#	End of record

