#	Name: ASD01914315
#	Creating user name:	WinNT
#	Creation time:	15. 06. 2019 20:03

#	Modifying user name:	WinNT
#	Modification time:	15. 06. 2019 20:03

#	Program:	/corina/corina34_cracker 3.40 0067  02.08.2006

@<TRIPOS>MOLECULE
ASD01914315
  43   46    0    0    0
SMALL
NO_CHARGES


@<TRIPOS>ATOM
   1 C1             0.0472     1.1896    -0.2840 C.2     
   2 N2            -0.0060    -0.1621    -0.2540 N.pl3   
   3 C3            -1.2350    -0.9508    -0.1302 C.3     
   4 C4            -2.3536    -0.0599     0.4212 C.3     
   5 N5            -2.3524     1.2215    -0.3009 N.am    
   6 C6            -1.1637     2.0857    -0.1751 C.3     
   7 N7            -2.5134     3.8384    -1.3299 N.ar    
   8 C8            -3.4473     2.9505    -1.6489 C.ar    
   9 C9            -3.4057     1.5949    -1.0543 C.2     
  10 C10           -2.5142     5.0524    -1.8350 C.ar    
  11 C11           -3.4975     5.4530    -2.7259 C.ar    
  12 C12           -4.4924     4.5590    -3.0872 C.ar    
  13 C13           -4.4675     3.2844    -2.5391 C.ar    
  14 C14            1.3365     1.5538    -0.4176 C.2     
  15 C15            2.1075     0.3853    -0.4661 C.2     
  16 N16            1.3014    -0.6426    -0.3658 N.2     
  17 C17            3.6063     0.3215    -0.6092 C.3     
  18 O18            4.1340     1.6471    -0.6892 O.3     
  19 C19            5.4811     1.7680    -0.8217 C.ar    
  20 C20            6.0610     3.0255    -0.9053 C.ar    
  21 C21            7.4307     3.1457    -1.0395 C.ar    
  22 C22            8.2234     2.0140    -1.0905 C.ar    
  23 C23            6.2792     0.6342    -0.8678 C.ar    
  24 O24           -4.3214     0.8192    -1.2456 O.2     
  25 C25            7.6479     0.7596    -1.0078 C.ar    
  26 Cl26          -5.6880     2.1224    -2.9560 Cl      
  27 H27           -1.5230    -1.3322    -1.1098 H       
  28 H28           -1.0652    -1.7850     0.5505 H       
  29 H29           -3.3148    -0.5548     0.2829 H       
  30 H30           -2.1854     0.1204     1.4829 H       
  31 H31           -1.1694     2.5873     0.7926 H       
  32 H32           -1.1537     2.8234    -0.9774 H       
  33 H33           -1.7377     5.7474    -1.5514 H       
  34 H34           -3.4885     6.4528    -3.1343 H       
  35 H35           -5.2693     4.8473    -3.7798 H       
  36 H36            1.7095     2.5656    -0.4770 H       
  37 H37            4.0325    -0.1876     0.2553 H       
  38 H38            3.8618    -0.2266    -1.5160 H       
  39 H39            5.4422     3.9097    -0.8659 H       
  40 H40            7.8826     4.1244    -1.1050 H       
  41 H41            9.2940     2.1101    -1.1954 H       
  42 H42            5.8306    -0.3458    -0.7984 H       
  43 H43            8.2692    -0.1229    -1.0483 H       
@<TRIPOS>BOND
   1    1    2 1
   2    1   14 2
   3    1    6 1
   4    2    3 1
   5    2   16 1
   6    3    4 1
   7    3   27 1
   8    3   28 1
   9    4    5 1
  10    4   29 1
  11    4   30 1
  12    5    6 1
  13    5    9 am
  14    6   31 1
  15    6   32 1
  16    7    8 ar
  17    7   10 ar
  18    8    9 1
  19    8   13 ar
  20    9   24 2
  21   10   11 ar
  22   10   33 1
  23   11   12 ar
  24   11   34 1
  25   12   13 ar
  26   12   35 1
  27   13   26 1
  28   14   15 1
  29   14   36 1
  30   15   16 2
  31   15   17 1
  32   17   18 1
  33   17   37 1
  34   17   38 1
  35   18   19 1
  36   19   20 ar
  37   19   23 ar
  38   20   21 ar
  39   20   39 1
  40   21   22 ar
  41   21   40 1
  42   22   25 ar
  43   22   41 1
  44   23   25 ar
  45   23   42 1
  46   25   43 1

#	End of record

