#	Name: ASD00071037
#	Creating user name:	WinNT
#	Creation time:	15. 06. 2019 18:30

#	Modifying user name:	WinNT
#	Modification time:	15. 06. 2019 18:30

#	Program:	/corina/corina34_cracker 3.40 0067  02.08.2006

@<TRIPOS>MOLECULE
ASD00071037
  36   38    0    0    0
SMALL
NO_CHARGES


@<TRIPOS>ATOM
   1 N1             1.8061     1.2517    -1.2051 N.ar    
   2 C2             1.6207    -0.0523    -1.1933 C.ar    
   3 C3             1.3538    -0.7448    -0.0031 C.ar    
   4 C4             1.2823    -0.0659     1.1756 C.ar    
   5 C5             1.4821     1.3299     1.1561 C.ar    
   6 C6             1.4226     2.0903     2.3337 C.ar    
   7 C7             1.6214     3.4369     2.2771 C.ar    
   8 C8             1.8826     4.0696     1.0645 C.ar    
   9 C9             1.9468     3.3619    -0.0971 C.ar    
  10 C10            1.7476     1.9712    -0.0784 C.ar    
  11 N11            1.6906    -0.7569    -2.3856 N.pl3   
  12 C12            1.1462    -2.2372    -0.0285 C.3     
  13 C13            1.0103    -2.7495     1.3822 C.ar    
  14 C14           -0.2403    -2.8551     1.9627 C.ar    
  15 C15           -0.3649    -3.3255     3.2580 C.ar    
  16 C16            0.7599    -3.6907     3.9743 C.ar    
  17 C17            2.0111    -3.5864     3.3985 C.ar    
  18 C18            2.1389    -3.1209     2.0976 C.ar    
  19 O19            3.3687    -3.0233     1.5274 O.3     
  20 C20            4.4862    -3.4235     2.3230 C.3     
  21 Cl21          -1.6545    -2.3968     1.0662 Cl      
  22 H22            1.0773    -0.5833     2.1012 H       
  23 H23            1.2200     1.6107     3.2800 H       
  24 H24            1.5753     4.0212     3.1842 H       
  25 H25            2.0364     5.1384     1.0449 H       
  26 H26            2.1496     3.8678    -1.0295 H       
  27 H27            1.7889    -0.2811    -3.2251 H       
  28 H28            1.6411    -1.7257    -2.3801 H       
  29 H29            0.2398    -2.4684    -0.5879 H       
  30 H30            2.0008    -2.7148    -0.5078 H       
  31 H31           -1.3423    -3.4071     3.7103 H       
  32 H32            0.6601    -4.0576     4.9852 H       
  33 H33            2.8892    -3.8716     3.9590 H       
  34 H34            4.5307    -2.8091     3.2222 H       
  35 H35            4.3758    -4.4710     2.6038 H       
  36 H36            5.4045    -3.2958     1.7499 H       
@<TRIPOS>BOND
   1    1    2 ar
   2    1   10 ar
   3    2    3 ar
   4    2   11 1
   5    3    4 ar
   6    3   12 1
   7    4    5 ar
   8    4   22 1
   9    5    6 ar
  10    5   10 ar
  11    6    7 ar
  12    6   23 1
  13    7    8 ar
  14    7   24 1
  15    8    9 ar
  16    8   25 1
  17    9   10 ar
  18    9   26 1
  19   11   27 1
  20   11   28 1
  21   12   13 1
  22   12   29 1
  23   12   30 1
  24   13   14 ar
  25   13   18 ar
  26   14   15 ar
  27   14   21 1
  28   15   16 ar
  29   15   31 1
  30   16   17 ar
  31   16   32 1
  32   17   18 ar
  33   17   33 1
  34   18   19 1
  35   19   20 1
  36   20   34 1
  37   20   35 1
  38   20   36 1

#	End of record

