#	Name: ASD03091364
#	Creating user name:	WinNT
#	Creation time:	15. 06. 2019 20:30

#	Modifying user name:	WinNT
#	Modification time:	15. 06. 2019 20:30

#	Program:	/corina/corina34_cracker 3.40 0067  02.08.2006

@<TRIPOS>MOLECULE
ASD03091364
  60   63    0    0    0
SMALL
NO_CHARGES


@<TRIPOS>ATOM
   1 C1            -0.0166     1.3745     0.0096 C.ar    
   2 C2             0.0021    -0.0041     0.0020 C.ar    
   3 C3             1.2138    -0.6919    -0.0132 C.ar    
   4 C4             2.4080    -0.0076    -0.0210 C.ar    
   5 C5             1.1913     2.0846     0.0019 C.ar    
   6 C6             1.5057     3.4648     0.0058 C.2     
   7 C7             2.4132     1.3841    -0.0136 C.ar    
   8 N8             3.4231     2.3197    -0.0186 N.pl3   
   9 C9             2.8602     3.5814    -0.0067 C.2     
  10 C10            4.8583     2.0258    -0.0336 C.3     
  11 C11            3.6062     4.8467    -0.0080 C.2     
  12 O12            3.0079     5.9050     0.0033 O.2     
  13 O13            4.9545     4.8346    -0.0216 O.3     
  14 O14           -1.1684    -0.6963     0.0099 O.3     
  15 C15           -1.0787    -2.1224     0.0014 C.3     
  16 C16           -2.4863    -2.7220     0.0121 C.3     
  17 C17           -2.3903    -4.2490     0.0030 C.3     
  18 C18           -3.7979    -4.8485     0.0138 C.3     
  19 C19           -5.1118    -6.9706     0.0794 C.3     
  20 N20           -5.7580    -6.5975    -1.1853 N.3     
  21 C21           -5.9019    -5.1405    -1.2984 C.3     
  22 C22           -4.5178    -4.4876    -1.2885 C.3     
  23 C23           -3.7041    -6.3724     0.1304 C.3     
  24 C24           -7.0572    -7.2676    -1.3304 C.3     
  25 C25           -7.7965    -6.6811    -2.5054 C.ar    
  26 C26           -7.6352    -7.2261    -3.7655 C.ar    
  27 C27           -8.3133    -6.6880    -4.8432 C.ar    
  28 C28           -9.1531    -5.6053    -4.6608 C.ar    
  29 C29           -9.3151    -5.0608    -3.4006 C.ar    
  30 C30           -8.6404    -5.6016    -2.3221 C.ar    
  31 H31           -0.9576     1.9045     0.0169 H       
  32 H32            1.2160    -1.7719    -0.0187 H       
  33 H33            3.3414    -0.5508    -0.0324 H       
  34 H34            0.7966     4.2794     0.0165 H       
  35 H35            5.2045     1.9579    -1.0649 H       
  36 H36            5.3976     2.8224     0.4790 H       
  37 H37            5.0405     1.0786     0.4740 H       
  38 H38            5.4013     5.6921    -0.0219 H       
  39 H39           -0.5520    -2.4480    -0.8956 H       
  40 H40           -0.5343    -2.4576     0.8842 H       
  41 H41           -3.0131    -2.3964     0.9092 H       
  42 H42           -3.0307    -2.3869    -0.8707 H       
  43 H43           -1.8636    -4.5745    -0.8940 H       
  44 H44           -1.8459    -4.5841     0.8858 H       
  45 H45           -4.3563    -4.4520     0.8617 H       
  46 H46           -5.6994    -6.5884     0.9141 H       
  47 H47           -5.0476    -8.0566     0.1479 H       
  48 H48           -6.4116    -4.8971    -2.2307 H       
  49 H49           -6.4858    -4.7668    -0.4573 H       
  50 H50           -4.6256    -3.4051    -1.3568 H       
  51 H51           -3.9382    -4.8504    -2.1374 H       
  52 H52           -3.1117    -6.7649    -0.6961 H       
  53 H53           -3.2305    -6.6365     1.0760 H       
  54 H54           -6.8998    -8.3335    -1.4955 H       
  55 H55           -7.6439    -7.1232    -0.4232 H       
  56 H56           -6.9790    -8.0720    -3.9080 H       
  57 H57           -8.1867    -7.1134    -5.8278 H       
  58 H58           -9.6823    -5.1845    -5.5030 H       
  59 H59           -9.9710    -4.2147    -3.2581 H       
  60 H60           -8.7670    -5.1763    -1.3374 H       
@<TRIPOS>BOND
   1    1    2 ar
   2    1    5 ar
   3    1   31 1
   4    2    3 ar
   5    2   14 1
   6    3    4 ar
   7    3   32 1
   8    4    7 ar
   9    4   33 1
  10    5    7 ar
  11    5    6 1
  12    6    9 2
  13    6   34 1
  14    7    8 1
  15    8    9 1
  16    8   10 1
  17    9   11 1
  18   10   35 1
  19   10   36 1
  20   10   37 1
  21   11   12 2
  22   11   13 1
  23   13   38 1
  24   14   15 1
  25   15   16 1
  26   15   39 1
  27   15   40 1
  28   16   17 1
  29   16   41 1
  30   16   42 1
  31   17   18 1
  32   17   43 1
  33   17   44 1
  34   18   23 1
  35   18   22 1
  36   18   45 1
  37   19   20 1
  38   19   23 1
  39   19   46 1
  40   19   47 1
  41   20   21 1
  42   20   24 1
  43   21   22 1
  44   21   48 1
  45   21   49 1
  46   22   50 1
  47   22   51 1
  48   23   52 1
  49   23   53 1
  50   24   25 1
  51   24   54 1
  52   24   55 1
  53   25   26 ar
  54   25   30 ar
  55   26   27 ar
  56   26   56 1
  57   27   28 ar
  58   27   57 1
  59   28   29 ar
  60   28   58 1
  61   29   30 ar
  62   29   59 1
  63   30   60 1

#	End of record

