#	Name: ASD01815981
#	Creating user name:	WinNT
#	Creation time:	15. 06. 2019 19:34

#	Modifying user name:	WinNT
#	Modification time:	15. 06. 2019 19:34

#	Program:	/corina/corina34_cracker 3.40 0067  02.08.2006

@<TRIPOS>MOLECULE
ASD01815981
  58   63    0    0    0
SMALL
NO_CHARGES


@<TRIPOS>ATOM
   1 C1            -1.2344    -0.8543     0.8947 C.ar    
   2 C2            -0.5118    -2.0363     0.9135 C.ar    
   3 C3             0.8292    -2.0458     0.5897 C.ar    
   4 C4             1.4696    -0.8623     0.2400 C.ar    
   5 C5             0.7340     0.3345     0.2218 C.ar    
   6 C6            -0.6176     0.3310     0.5503 C.ar    
   7 N7             2.8150    -0.8648    -0.0855 N.pl3   
   8 C8             3.4859     0.2460    -0.4303 C.2     
   9 C9             2.8724     1.4729    -0.4834 C.2     
  10 C10            1.4331     1.5788    -0.1522 C.2     
  11 C11            3.2892     2.8334    -0.8085 C.2     
  12 N12            2.1907     3.6067    -0.6703 N.am    
  13 N13            1.0974     2.8306    -0.2775 N.2     
  14 C14            2.1529     4.9897    -0.8891 C.ar    
  15 O15            4.4059     3.1987    -1.1383 O.2     
  16 C16            3.5400    -2.1373    -0.0518 C.3     
  17 C17            3.4571    -2.8080    -1.4245 C.3     
  18 C18            1.9581     5.4863    -2.1710 C.ar    
  19 C19            1.9214     6.8506    -2.3838 C.ar    
  20 C20            2.0788     7.7229    -1.3223 C.ar    
  21 C21            2.2731     7.2335    -0.0438 C.ar    
  22 C22            2.3048     5.8687     0.1779 C.ar    
  23 F23            2.4942     5.3902     1.4270 F       
  24 C24            4.1064    -4.1958    -1.3610 C.3     
  25 C25            3.8519    -4.9164    -2.6856 C.3     
  26 N26            4.2290    -4.0676    -3.8088 N.am    
  27 C27            4.3750    -2.7444    -3.7302 C.2     
  28 C28            4.2133    -1.9667    -2.4556 C.3     
  29 O29            4.6531    -2.1364    -4.7421 O.2     
  30 C30            4.4524    -4.6795    -5.0472 C.ar    
  31 C31            3.4010    -4.8517    -5.9380 C.ar    
  32 C32            3.6248    -5.4561    -7.1595 C.ar    
  33 C33            4.8940    -5.8899    -7.4957 C.ar    
  34 C34            5.9429    -5.7203    -6.6108 C.ar    
  35 C35            5.7271    -5.1107    -5.3904 C.ar    
  36 H36           -2.2848    -0.8615     1.1459 H       
  37 H37           -1.0030    -2.9591     1.1846 H       
  38 H38            1.3821    -2.9733     0.6083 H       
  39 H39           -1.1818     1.2518     0.5356 H       
  40 H40            4.5360     0.1724    -0.6717 H       
  41 H41            4.5844    -1.9539     0.2004 H       
  42 H42            3.0941    -2.7898     0.6989 H       
  43 H43            2.4133    -2.9046    -1.7232 H       
  44 H44            1.8357     4.8064    -3.0011 H       
  45 H45            1.7698     7.2367    -3.3810 H       
  46 H46            2.0502     8.7891    -1.4924 H       
  47 H47            2.3960     7.9175     0.7829 H       
  48 H48            5.1796    -4.0905    -1.2023 H       
  49 H49            3.6677    -4.7678    -0.5434 H       
  50 H50            4.4388    -5.8344    -2.7148 H       
  51 H51            2.7937    -5.1664    -2.7623 H       
  52 H52            3.6550    -1.0526    -2.6575 H       
  53 H53            5.1964    -1.7095    -2.0613 H       
  54 H54            2.4094    -4.5137    -5.6756 H       
  55 H55            2.8076    -5.5903    -7.8527 H       
  56 H56            5.0663    -6.3626    -8.4514 H       
  57 H57            6.9329    -6.0609    -6.8760 H       
  58 H58            6.5468    -4.9782    -4.6998 H       
@<TRIPOS>BOND
   1    1    2 ar
   2    1    6 ar
   3    1   36 1
   4    2    3 ar
   5    2   37 1
   6    3    4 ar
   7    3   38 1
   8    4    5 ar
   9    4    7 1
  10    5    6 ar
  11    5   10 1
  12    6   39 1
  13    7    8 1
  14    7   16 1
  15    8    9 2
  16    8   40 1
  17    9   10 1
  18    9   11 1
  19   10   13 2
  20   11   12 am
  21   11   15 2
  22   12   13 1
  23   12   14 1
  24   14   18 ar
  25   14   22 ar
  26   16   17 1
  27   16   41 1
  28   16   42 1
  29   17   24 1
  30   17   28 1
  31   17   43 1
  32   18   19 ar
  33   18   44 1
  34   19   20 ar
  35   19   45 1
  36   20   21 ar
  37   20   46 1
  38   21   22 ar
  39   21   47 1
  40   22   23 1
  41   24   25 1
  42   24   48 1
  43   24   49 1
  44   25   26 1
  45   25   50 1
  46   25   51 1
  47   26   27 am
  48   26   30 1
  49   27   28 1
  50   27   29 2
  51   28   52 1
  52   28   53 1
  53   30   31 ar
  54   30   35 ar
  55   31   32 ar
  56   31   54 1
  57   32   33 ar
  58   32   55 1
  59   33   34 ar
  60   33   56 1
  61   34   35 ar
  62   34   57 1
  63   35   58 1

#	End of record

