#	Name: ASD02039350
#	Creating user name:	WinNT
#	Creation time:	15. 06. 2019 20:18

#	Modifying user name:	WinNT
#	Modification time:	15. 06. 2019 20:18

#	Program:	/corina/corina34_cracker 3.40 0067  02.08.2006

@<TRIPOS>MOLECULE
ASD02039350
  53   56    0    0    0
SMALL
NO_CHARGES


@<TRIPOS>ATOM
   1 C1            -0.1345     1.5596    -0.1872 C.ar    
   2 C2            -0.1559     0.1782    -0.0590 C.ar    
   3 C3            -1.3627    -0.4921    -0.1419 C.ar    
   4 C4            -2.5121     1.4848    -0.4577 C.ar    
   5 C5            -1.3325     2.2230    -0.3898 C.ar    
   6 C6            -3.8037     2.1806    -0.6744 C.ar    
   7 C7             1.1630     2.3212    -0.1015 C.3     
   8 N8             1.8164     2.3220    -1.4127 N.am    
   9 C9             1.4076     3.2892    -2.4343 C.3     
  10 C10            2.7935     1.4328    -1.6793 C.2     
  11 C11            3.1433     0.4028    -0.6857 C.2     
  12 C12            4.1487    -0.5129    -0.7933 C.2     
  13 N13            2.5275     0.1958     0.5064 N.2     
  14 C14            3.1089    -0.7981     1.1135 C.2     
  15 N15            4.1202    -1.2620     0.3340 N.pl3   
  16 O16            3.3866     1.4808    -2.7400 O.2     
  17 C17            5.0183    -2.3739     0.6554 C.3     
  18 C18           -3.8174     3.5644    -0.9144 C.ar    
  19 N19           -2.4881     0.1631    -0.3408 N.ar    
  20 C20            2.5762     4.2262    -2.7462 C.3     
  21 C21            0.9972     2.5447    -3.7064 C.3     
  22 C22           -4.9834     1.4607    -0.6439 C.ar    
  23 C23           -6.2027     2.1246    -0.8497 C.ar    
  24 C24           -6.2050     3.5227    -1.0853 C.ar    
  25 C25           -4.9867     4.2249    -1.1158 C.ar    
  26 C26           -7.4236     1.4271    -0.8267 C.ar    
  27 C27           -8.5883     2.1011    -1.0303 C.ar    
  28 C28           -8.5903     3.4754    -1.2619 C.ar    
  29 C29           -7.4280     4.1832    -1.2912 C.ar    
  30 H30            0.7613    -0.3685     0.1036 H       
  31 H31           -1.3828    -1.5673    -0.0425 H       
  32 H32           -1.3534     3.2986    -0.4852 H       
  33 H33            0.9622     3.3478     0.2050 H       
  34 H34            1.8163     1.8450     0.6297 H       
  35 H35            0.5632     3.8718    -2.0658 H       
  36 H36            4.8357    -0.6201    -1.6197 H       
  37 H37            2.8336    -1.1889     2.0819 H       
  38 H38            4.5914    -3.3051     0.2828 H       
  39 H39            5.9876    -2.2053     0.1862 H       
  40 H40            5.1441    -2.4387     1.7362 H       
  41 H41           -2.8859     4.1103    -0.9388 H       
  42 H42            3.4480     3.6372    -3.0312 H       
  43 H43            2.3015     4.8890    -3.5667 H       
  44 H44            2.8117     4.8198    -1.8629 H       
  45 H45            0.1124     1.9410    -3.5046 H       
  46 H46            0.7737     3.2654    -4.4930 H       
  47 H47            1.8132     1.8974    -4.0277 H       
  48 H48           -4.9669     0.3960    -0.4637 H       
  49 H49           -4.9814     5.2900    -1.2949 H       
  50 H50           -7.4369     0.3620    -0.6487 H       
  51 H51           -9.5245     1.5630    -1.0125 H       
  52 H52           -9.5283     3.9864    -1.4209 H       
  53 H53           -7.4457     5.2478    -1.4722 H       
@<TRIPOS>BOND
   1    1    2 ar
   2    1    7 1
   3    1    5 ar
   4    2    3 ar
   5    2   30 1
   6    3   19 ar
   7    3   31 1
   8    4    5 ar
   9    4    6 1
  10    4   19 ar
  11    5   32 1
  12    6   18 ar
  13    6   22 ar
  14    7    8 1
  15    7   33 1
  16    7   34 1
  17    8    9 1
  18    8   10 am
  19    9   21 1
  20    9   20 1
  21    9   35 1
  22   10   11 1
  23   10   16 2
  24   11   12 2
  25   11   13 1
  26   12   15 1
  27   12   36 1
  28   13   14 2
  29   14   15 1
  30   14   37 1
  31   15   17 1
  32   17   38 1
  33   17   39 1
  34   17   40 1
  35   18   25 ar
  36   18   41 1
  37   20   42 1
  38   20   43 1
  39   20   44 1
  40   21   45 1
  41   21   46 1
  42   21   47 1
  43   22   23 ar
  44   22   48 1
  45   23   24 ar
  46   23   26 ar
  47   24   25 ar
  48   24   29 ar
  49   25   49 1
  50   26   27 ar
  51   26   50 1
  52   27   28 ar
  53   27   51 1
  54   28   29 ar
  55   28   52 1
  56   29   53 1

#	End of record

