#	Name: ASD02038181
#	Creating user name:	WinNT
#	Creation time:	15. 06. 2019 20:16

#	Modifying user name:	WinNT
#	Modification time:	15. 06. 2019 20:16

#	Program:	/corina/corina34_cracker 3.40 0067  02.08.2006

@<TRIPOS>MOLECULE
ASD02038181
  46   47    0    0    0
SMALL
NO_CHARGES


@<TRIPOS>ATOM
   1 C1            -0.5821     1.5899     1.0111 C.ar    
   2 C2            -0.5075     0.2176     0.8620 C.ar    
   3 C3             0.5743     2.3516     1.0070 C.ar    
   4 C4             1.8068     1.7415     0.8534 C.ar    
   5 C5             1.8868     0.3709     0.7041 C.ar    
   6 C6             0.7285    -0.3962     0.7082 C.ar    
   7 Cl7           -2.1271     2.3596     1.1963 Cl      
   8 Cl8            0.4778     4.0747     1.1945 Cl      
   9 N9             0.8072    -1.7832     0.5577 N.pl3   
  10 C10           -0.4149    -2.5910     0.5622 C.3     
  11 C11           -0.0518    -4.0663     0.3818 C.3     
  12 N12           -1.2740    -4.8741     0.3864 N.am    
  13 C13           -1.1981    -6.2119     0.2412 C.2     
  14 O14           -0.1180    -6.7470     0.1069 O.2     
  15 C15           -2.4553    -7.0429     0.2459 C.3     
  16 O16           -2.1161    -8.4208     0.0774 O.3     
  17 C17           -3.1435    -9.3117     0.0591 C.ar    
  18 C18           -2.8846   -10.6649    -0.1010 C.ar    
  19 C19           -4.4491    -8.8672     0.2062 C.ar    
  20 C20           -5.4930    -9.7713     0.1881 C.ar    
  21 C21           -5.2352   -11.1257     0.0223 C.ar    
  22 C22           -3.9273   -11.5704    -0.1197 C.ar    
  23 N23           -6.2922   -12.0425     0.0039 N.am    
  24 S24           -7.2631   -12.1601    -1.3324 S.o2    
  25 O25           -8.1920   -13.1834    -1.0018 O.2     
  26 O26           -7.6951   -10.8274    -1.5701 O.2     
  27 C27           -6.1499   -12.7135    -2.6534 C.3     
  28 H28           -1.4094    -0.3764     0.8656 H       
  29 H29            2.7072     2.3379     0.8499 H       
  30 H30            2.8491    -0.1042     0.5838 H       
  31 H31            1.6711    -2.2112     0.4502 H       
  32 H32           -0.9347    -2.4582     1.5110 H       
  33 H33           -1.0631    -2.2739    -0.2547 H       
  34 H34            0.4680    -4.1992    -0.5670 H       
  35 H35            0.5964    -4.3835     1.1988 H       
  36 H36           -2.1378    -4.4462     0.4938 H       
  37 H37           -2.9751    -6.9100     1.1947 H       
  38 H38           -3.1034    -6.7257    -0.5711 H       
  39 H39           -1.8674   -11.0106    -0.2113 H       
  40 H40           -4.6494    -7.8138     0.3352 H       
  41 H41           -6.5095    -9.4251     0.3034 H       
  42 H42           -3.7259   -12.6235    -0.2487 H       
  43 H43           -6.4563   -12.6091     0.7740 H       
  44 H44           -5.6453   -13.6287    -2.3437 H       
  45 H45           -6.7267   -12.9050    -3.5582 H       
  46 H46           -5.4087   -11.9394    -2.8521 H       
@<TRIPOS>BOND
   1    1    2 ar
   2    1    3 ar
   3    1    7 1
   4    2    6 ar
   5    2   28 1
   6    3    4 ar
   7    3    8 1
   8    4    5 ar
   9    4   29 1
  10    5    6 ar
  11    5   30 1
  12    6    9 1
  13    9   10 1
  14    9   31 1
  15   10   11 1
  16   10   32 1
  17   10   33 1
  18   11   12 1
  19   11   34 1
  20   11   35 1
  21   12   13 am
  22   12   36 1
  23   13   14 2
  24   13   15 1
  25   15   16 1
  26   15   37 1
  27   15   38 1
  28   16   17 1
  29   17   18 ar
  30   17   19 ar
  31   18   22 ar
  32   18   39 1
  33   19   20 ar
  34   19   40 1
  35   20   21 ar
  36   20   41 1
  37   21   22 ar
  38   21   23 1
  39   22   42 1
  40   23   24 am
  41   23   43 1
  42   24   25 2
  43   24   26 2
  44   24   27 1
  45   27   44 1
  46   27   45 1
  47   27   46 1

#	End of record

