#	Name: ASD01811308
#	Creating user name:	WinNT
#	Creation time:	15. 06. 2019 19:26

#	Modifying user name:	WinNT
#	Modification time:	15. 06. 2019 19:26

#	Program:	/corina/corina34_cracker 3.40 0067  02.08.2006

@<TRIPOS>MOLECULE
ASD01811308
  65   70    0    0    0
SMALL
NO_CHARGES


@<TRIPOS>ATOM
   1 C1            -0.1532     1.3051    -0.1033 C.ar    
   2 C2            -0.2227    -0.0804    -0.2207 C.ar    
   3 N3            -1.5548    -0.4920    -0.3002 N.am    
   4 C4            -2.4116     0.5457    -0.2424 C.2     
   5 C5            -1.5756     1.7889    -0.1042 C.3     
   6 C6            -1.9186     2.5575     1.1746 C.3     
   7 N7            -2.3153     3.9226     0.7574 N.3     
   8 C8            -2.8031     3.7943    -0.6406 C.3     
   9 C9            -1.8289     2.7618    -1.2665 C.3     
  10 C10           -3.3658     4.4568     1.6345 C.3     
  11 C11           -2.8378     4.5440     3.0679 C.3     
  12 C12           -3.9318     5.1003     3.9814 C.3     
  13 C13           -4.3366     6.4955     3.5012 C.3     
  14 C14           -4.8646     6.4082     2.0678 C.3     
  15 C15           -3.7706     5.8519     1.1543 C.3     
  16 F16           -2.6576     6.6987     1.1905 F       
  17 C17            1.0642     1.9408    -0.0100 C.ar    
  18 C18            2.2346     1.2025    -0.0319 C.ar    
  19 C19            2.1777    -0.1741    -0.1474 C.ar    
  20 C20            0.9598    -0.8156    -0.2408 C.ar    
  21 O21           -3.6222     0.4886    -0.2889 O.2     
  22 C22           -1.9719    -1.8902    -0.4317 C.3     
  23 C23           -2.1633    -2.4884     0.9382 C.ar    
  24 C24           -3.3307    -2.2415     1.6426 C.ar    
  25 C25           -3.5101    -2.7887     2.8992 C.ar    
  26 C26           -2.5149    -3.5887     3.4557 C.ar    
  27 C27           -1.3438    -3.8329     2.7424 C.ar    
  28 C28           -1.1759    -3.2863     1.4857 C.ar    
  29 F29           -4.2943    -1.4649     1.1009 F       
  30 C30           -2.7017    -4.1789     4.8053 C.2     
  31 C31           -3.8278    -4.0176     5.6357 C.2     
  32 N32           -3.6189    -4.6879     6.7377 N.2     
  33 N33           -2.3617    -5.2986     6.6554 N.pl3   
  34 C34           -1.8161    -4.9808     5.4641 C.2     
  35 C35           -1.7475    -6.1419     7.6839 C.3     
  36 H36           -2.7451     2.0706     1.6921 H       
  37 H37           -1.0462     2.6053     1.8264 H       
  38 H38           -3.8257     3.4174    -0.6578 H       
  39 H39           -2.7360     4.7501    -1.1603 H       
  40 H40           -0.9015     3.2437    -1.5762 H       
  41 H41           -2.2974     2.2477    -2.1057 H       
  42 H42           -4.2329     3.7970     1.6063 H       
  43 H43           -2.5494     3.5501     3.4100 H       
  44 H44           -1.9706     5.2038     3.0961 H       
  45 H45           -4.7990     4.4405     3.9532 H       
  46 H46           -3.5556     5.1625     5.0025 H       
  47 H47           -5.1160     6.8918     4.1520 H       
  48 H48           -3.4694     7.1553     3.5294 H       
  49 H49           -5.7318     5.7484     2.0396 H       
  50 H50           -5.1530     7.4021     1.7257 H       
  51 H51           -4.1467     5.7897     0.1331 H       
  52 H52            1.1061     3.0162     0.0799 H       
  53 H53            3.1902     1.7005     0.0406 H       
  54 H54            3.0912    -0.7501    -0.1644 H       
  55 H55            0.9234    -1.8912    -0.3306 H       
  56 H56           -2.9105    -1.9390    -0.9838 H       
  57 H57           -1.2053    -2.4492    -0.9684 H       
  58 H58           -4.4198    -2.5961     3.4485 H       
  59 H59           -0.5694    -4.4524     3.1703 H       
  60 H60           -0.2680    -3.4760     0.9325 H       
  61 H61           -4.7101    -3.4400     5.4024 H       
  62 H62           -0.8502    -5.2983     5.1000 H       
  63 H63           -2.0262    -7.1820     7.5150 H       
  64 H64           -0.6630    -6.0436     7.6343 H       
  65 H65           -2.0962    -5.8274     8.6676 H       
@<TRIPOS>BOND
   1    1    2 ar
   2    1   17 ar
   3    1    5 1
   4    2    3 1
   5    2   20 ar
   6    3    4 am
   7    3   22 1
   8    4    5 1
   9    4   21 2
  10    5    6 1
  11    5    9 1
  12    6    7 1
  13    6   36 1
  14    6   37 1
  15    7    8 1
  16    7   10 1
  17    8    9 1
  18    8   38 1
  19    8   39 1
  20    9   40 1
  21    9   41 1
  22   10   11 1
  23   10   15 1
  24   10   42 1
  25   11   12 1
  26   11   43 1
  27   11   44 1
  28   12   13 1
  29   12   45 1
  30   12   46 1
  31   13   14 1
  32   13   47 1
  33   13   48 1
  34   14   15 1
  35   14   49 1
  36   14   50 1
  37   15   16 1
  38   15   51 1
  39   17   18 ar
  40   17   52 1
  41   18   19 ar
  42   18   53 1
  43   19   20 ar
  44   19   54 1
  45   20   55 1
  46   22   23 1
  47   22   56 1
  48   22   57 1
  49   23   24 ar
  50   23   28 ar
  51   24   25 ar
  52   24   29 1
  53   25   26 ar
  54   25   58 1
  55   26   27 ar
  56   26   30 1
  57   27   28 ar
  58   27   59 1
  59   28   60 1
  60   30   31 1
  61   30   34 2
  62   31   32 2
  63   31   61 1
  64   32   33 1
  65   33   34 1
  66   33   35 1
  67   34   62 1
  68   35   63 1
  69   35   64 1
  70   35   65 1

#	End of record

