#	Name: ASD02038182
#	Creating user name:	WinNT
#	Creation time:	15. 06. 2019 20:16

#	Modifying user name:	WinNT
#	Modification time:	15. 06. 2019 20:16

#	Program:	/corina/corina34_cracker 3.40 0067  02.08.2006

@<TRIPOS>MOLECULE
ASD02038182
  47   48    0    0    0
SMALL
NO_CHARGES


@<TRIPOS>ATOM
   1 C1             0.2444     0.9300     1.1252 C.ar    
   2 C2             0.2340    -0.4412     0.9499 C.ar    
   3 C3             1.4478     1.6132     1.1760 C.ar    
   4 C4             2.6422     0.9257     1.0510 C.ar    
   5 C5             2.6372    -0.4441     0.8757 C.ar    
   6 C6             1.4316    -1.1327     0.8248 C.ar    
   7 Cl7           -1.2523     1.7968     1.2745 Cl      
   8 Cl8            1.4580     3.3351     1.3963 Cl      
   9 N9             1.4243    -2.5188     0.6479 N.pl3   
  10 C10            0.1524    -3.2437     0.5944 C.3     
  11 C11            0.4240    -4.7362     0.3953 C.3     
  12 N12           -0.8515    -5.4631     0.3416 N.3     
  13 C13           -0.6294    -6.9026     0.1509 C.3     
  14 C14           -1.9775    -7.6244     0.1001 C.3     
  15 O15           -2.7031    -7.1975    -1.0546 O.3     
  16 C16           -3.9316    -7.7473    -1.2500 C.ar    
  17 C17           -4.6894    -7.3773    -2.3512 C.ar    
  18 C18           -4.4235    -8.6820    -0.3510 C.ar    
  19 C19           -5.6708    -9.2412    -0.5489 C.ar    
  20 C20           -6.4325    -8.8671    -1.6480 C.ar    
  21 C21           -5.9370    -7.9352    -2.5503 C.ar    
  22 N22           -7.6963    -9.4332    -1.8493 N.am    
  23 S23           -8.9773    -8.9519    -0.9166 S.o2    
  24 O24          -10.0734    -9.7108    -1.4083 O.2     
  25 O25           -8.5173    -9.1096     0.4186 O.2     
  26 C26           -9.1908    -7.1947    -1.3130 C.3     
  27 H27           -0.7046    -0.9741     0.9106 H       
  28 H28            3.5793     1.4610     1.0903 H       
  29 H29            3.5699    -0.9797     0.7779 H       
  30 H30            2.2614    -3.0010     0.5605 H       
  31 H31           -0.3904    -3.0945     1.5277 H       
  32 H32           -0.4447    -2.8690    -0.2370 H       
  33 H33            0.9668    -4.8854    -0.5381 H       
  34 H34            1.0210    -5.1109     1.2267 H       
  35 H35           -1.4022    -5.2887     1.1689 H       
  36 H36           -0.0939    -7.0669    -0.7842 H       
  37 H37           -0.0396    -7.2924     0.9806 H       
  38 H38           -1.8118    -8.7004     0.0479 H       
  39 H39           -2.5501    -7.3880     0.9970 H       
  40 H40           -4.3038    -6.6525    -3.0529 H       
  41 H41           -3.8310    -8.9728     0.5038 H       
  42 H42           -6.0534    -9.9695     0.1508 H       
  43 H43           -6.5288    -7.6436    -3.4054 H       
  44 H44           -7.8221   -10.1075    -2.5351 H       
  45 H45           -9.3093    -7.0770    -2.3901 H       
  46 H46          -10.0770    -6.8130    -0.8061 H       
  47 H47           -8.3143    -6.6382    -0.9809 H       
@<TRIPOS>BOND
   1    1    2 ar
   2    1    3 ar
   3    1    7 1
   4    2    6 ar
   5    2   27 1
   6    3    4 ar
   7    3    8 1
   8    4    5 ar
   9    4   28 1
  10    5    6 ar
  11    5   29 1
  12    6    9 1
  13    9   10 1
  14    9   30 1
  15   10   11 1
  16   10   31 1
  17   10   32 1
  18   11   12 1
  19   11   33 1
  20   11   34 1
  21   12   13 1
  22   12   35 1
  23   13   14 1
  24   13   36 1
  25   13   37 1
  26   14   15 1
  27   14   38 1
  28   14   39 1
  29   15   16 1
  30   16   17 ar
  31   16   18 ar
  32   17   21 ar
  33   17   40 1
  34   18   19 ar
  35   18   41 1
  36   19   20 ar
  37   19   42 1
  38   20   21 ar
  39   20   22 1
  40   21   43 1
  41   22   23 am
  42   22   44 1
  43   23   24 2
  44   23   25 2
  45   23   26 1
  46   26   45 1
  47   26   46 1
  48   26   47 1

#	End of record

