#	Name: ASD03330129
#	Creating user name:	WinNT
#	Creation time:	15. 06. 2019 20:36

#	Modifying user name:	WinNT
#	Modification time:	15. 06. 2019 20:36

#	Program:	/corina/corina34_cracker 3.40 0067  02.08.2006

@<TRIPOS>MOLECULE
ASD03330129
  61   65    0    0    0
SMALL
NO_CHARGES


@<TRIPOS>ATOM
   1 N1             0.0908     1.6534    -0.3756 N.am    
   2 C2             0.2721     0.1954    -0.3786 C.3     
   3 C3             0.8155    -0.2312    -1.7459 C.3     
   4 C4             2.0880     0.5611    -2.0545 C.3     
   5 C5             1.7601     2.0549    -2.1096 C.3     
   6 C6             1.2275     2.5074    -0.7464 C.3     
   7 C7             3.1094     0.3107    -0.9750 C.2     
   8 O8             3.6277     1.2456    -0.4020 O.2     
   9 N9             3.4469    -0.9521    -0.6464 N.am    
  10 C10            2.6443     0.1197    -3.3837 C.ar    
  11 C11            3.7415     0.7652    -3.9224 C.ar    
  12 C12            4.2517     0.3605    -5.1417 C.ar    
  13 C13            3.6650    -0.6901    -5.8221 C.ar    
  14 C14            2.5683    -1.3362    -5.2829 C.ar    
  15 C15            2.0607    -0.9342    -4.0616 C.ar    
  16 C16           -1.0972     2.1970    -0.0446 C.2     
  17 O17           -2.1024     1.5106    -0.0471 O.2     
  18 C18           -1.1787     3.6140     0.3184 C.2     
  19 C19           -2.3366     4.3058     0.5119 C.2     
  20 C20           -2.1661     5.6326     0.8481 C.2     
  21 C21           -0.8510     6.0313     0.9306 C.2     
  22 S22            0.2028     4.6697     0.5755 S.3     
  23 C23           -0.3954     7.3925     1.2707 C.ar    
  24 C24           -0.9269     8.0523     2.3819 C.ar    
  25 C25           -0.4984     9.3238     2.6957 C.ar    
  26 C26            0.4601     9.9498     1.9091 C.ar    
  27 C27            0.9910     9.2979     0.8032 C.ar    
  28 C28            0.5733     8.0238     0.4858 C.ar    
  29 O29            0.8793    11.2035     2.2219 O.3     
  30 C30           -3.3022     6.5513     1.0987 C.ar    
  31 C31           -3.5748     7.5880     0.2053 C.ar    
  32 C32           -4.6346     8.4401     0.4438 C.ar    
  33 C33           -5.4257     8.2671     1.5668 C.ar    
  34 C34           -5.1589     7.2404     2.4561 C.ar    
  35 C35           -4.1056     6.3792     2.2246 C.ar    
  36 Cl36          -6.7568     9.3419     1.8609 Cl      
  37 Cl37          -2.5830     7.8061    -1.2028 Cl      
  38 H38            0.9808    -0.0863     0.4003 H       
  39 H39           -0.6858    -0.2923    -0.1977 H       
  40 H40            1.0451    -1.2966    -1.7299 H       
  41 H41            0.0674    -0.0312    -2.5131 H       
  42 H42            2.6622     2.6166    -2.3524 H       
  43 H43            1.0032     2.2333    -2.8734 H       
  44 H44            0.9000     3.5452    -0.8082 H       
  45 H45            2.0141     2.4142     0.0025 H       
  46 H46            3.0879    -1.6974    -1.1529 H       
  47 H47            4.0487    -1.1155     0.0965 H       
  48 H48            4.2000     1.5860    -3.3909 H       
  49 H49            5.1086     0.8652    -5.5630 H       
  50 H50            4.0632    -1.0059    -6.7750 H       
  51 H51            2.1096    -2.1568    -5.8146 H       
  52 H52            1.2061    -1.4414    -3.6386 H       
  53 H53           -3.3110     3.8512     0.4097 H       
  54 H54           -1.6727     7.5666     2.9937 H       
  55 H55           -0.9087     9.8344     3.5544 H       
  56 H56            1.7358     9.7886     0.1942 H       
  57 H57            0.9902     7.5158    -0.3712 H       
  58 H58            1.6391    11.2264     2.8197 H       
  59 H59           -4.8467     9.2432    -0.2466 H       
  60 H60           -5.7791     7.1103     3.3307 H       
  61 H61           -3.9017     5.5757     2.9168 H       
@<TRIPOS>BOND
   1    1    2 1
   2    1    6 1
   3    1   16 am
   4    2    3 1
   5    2   38 1
   6    2   39 1
   7    3    4 1
   8    3   40 1
   9    3   41 1
  10    4    5 1
  11    4    7 1
  12    4   10 1
  13    5    6 1
  14    5   42 1
  15    5   43 1
  16    6   44 1
  17    6   45 1
  18    7    8 2
  19    7    9 am
  20    9   46 1
  21    9   47 1
  22   10   11 ar
  23   10   15 ar
  24   11   12 ar
  25   11   48 1
  26   12   13 ar
  27   12   49 1
  28   13   14 ar
  29   13   50 1
  30   14   15 ar
  31   14   51 1
  32   15   52 1
  33   16   17 2
  34   16   18 1
  35   18   19 2
  36   18   22 1
  37   19   20 1
  38   19   53 1
  39   20   21 2
  40   20   30 1
  41   21   22 1
  42   21   23 1
  43   23   24 ar
  44   23   28 ar
  45   24   25 ar
  46   24   54 1
  47   25   26 ar
  48   25   55 1
  49   26   27 ar
  50   26   29 1
  51   27   28 ar
  52   27   56 1
  53   28   57 1
  54   29   58 1
  55   30   31 ar
  56   30   35 ar
  57   31   32 ar
  58   31   37 1
  59   32   33 ar
  60   32   59 1
  61   33   34 ar
  62   33   36 1
  63   34   35 ar
  64   34   60 1
  65   35   61 1

#	End of record

