#	Name: ASD01180095
#	Creating user name:	WinNT
#	Creation time:	15. 06. 2019 19:06

#	Modifying user name:	WinNT
#	Modification time:	15. 06. 2019 19:06

#	Program:	/corina/corina34_cracker 3.40 0067  02.08.2006

@<TRIPOS>MOLECULE
ASD01180095
  60   62    0    0    0
SMALL
NO_CHARGES


@<TRIPOS>ATOM
   1 C1             0.9231     1.5341    -0.6427 C.2     
   2 C2             0.8159     0.0335    -0.5551 C.3     
   3 C3             2.2145    -0.5827    -0.6262 C.3     
   4 O4             2.0069     2.0571    -0.7509 O.2     
   5 O5            -0.1859     2.2895    -0.6060 O.3     
   6 N6             2.1103    -2.0415    -0.5411 N.am    
   7 C7             3.2234    -2.8003    -0.5835 C.2     
   8 C8             3.1183    -4.2725    -0.4975 C.ar    
   9 C9             4.2690    -5.0611    -0.5412 C.ar    
  10 C10            4.1640    -6.4343    -0.4600 C.ar    
  11 C11            2.9214    -7.0299    -0.3360 C.ar    
  12 C12            1.7767    -6.2540    -0.2922 C.ar    
  13 C13            1.8682    -4.8794    -0.3666 C.ar    
  14 O14            4.3138    -2.2741    -0.6924 O.2     
  15 C15            2.8141    -8.5306    -0.2489 C.3     
  16 C16            2.6340    -8.9450     1.2128 C.3     
  17 C17            3.9007    -8.6028     1.9998 C.3     
  18 C18            3.6724    -8.8920     3.4847 C.3     
  19 N19            1.6611    -8.9840    -1.0307 N.pl3   
  20 N20            0.6707   -10.6018    -2.3884 N.ar    
  21 C21            1.6581   -10.2532    -1.5895 C.ar    
  22 C22            2.7069   -11.1354    -1.2911 C.ar    
  23 C23            2.7175   -12.3849    -1.8329 C.ar    
  24 C24            1.6574   -12.7519    -2.6875 C.ar    
  25 C25            1.6056   -14.0233    -3.2786 C.ar    
  26 C26            0.5655   -14.3434    -4.0982 C.ar    
  27 C27           -0.4480   -13.4245    -4.3578 C.ar    
  28 C28           -0.4286   -12.1821    -3.8007 C.ar    
  29 C29            0.6276   -11.8157    -2.9497 C.ar    
  30 C30            3.8337   -13.3503    -1.5276 C.3     
  31 C31            5.0647    -9.4534     1.4876 C.3     
  32 H32            0.3448    -0.2427     0.3883 H       
  33 H33            0.2131    -0.3367    -1.3843 H       
  34 H34            2.6856    -0.3066    -1.5696 H       
  35 H35            2.8173    -0.2125     0.2030 H       
  36 H36           -0.0669     3.2473    -0.6654 H       
  37 H37            1.2402    -2.4614    -0.4542 H       
  38 H38            5.2396    -4.5974    -0.6386 H       
  39 H39            5.0536    -7.0456    -0.4936 H       
  40 H40            0.8097    -6.7251    -0.1954 H       
  41 H41            0.9743    -4.2746    -0.3278 H       
  42 H42            3.7228    -8.9834    -0.6456 H       
  43 H43            1.7854    -8.4107     1.6400 H       
  44 H44            2.4519   -10.0183     1.2664 H       
  45 H45            4.1366    -7.5469     1.8673 H       
  46 H46            3.4365    -9.9479     3.6171 H       
  47 H47            4.5748    -8.6482     4.0453 H       
  48 H48            2.8431    -8.2860     3.8496 H       
  49 H49            0.8998    -8.3965    -1.1574 H       
  50 H50            3.5047   -10.8243    -0.6330 H       
  51 H51            2.3862   -14.7441    -3.0852 H       
  52 H52            0.5266   -15.3224    -4.5526 H       
  53 H53           -1.2619   -13.7013    -5.0115 H       
  54 H54           -1.2222   -11.4808    -4.0124 H       
  55 H55            3.5752   -13.9377    -0.6466 H       
  56 H56            3.9809   -14.0162    -2.3779 H       
  57 H57            4.7523   -12.7953    -1.3375 H       
  58 H58            5.2894    -9.1790     0.4569 H       
  59 H59            5.9429    -9.2797     2.1095 H       
  60 H60            4.7912   -10.5076     1.5315 H       
@<TRIPOS>BOND
   1    1    2 1
   2    1    4 2
   3    1    5 1
   4    2    3 1
   5    2   32 1
   6    2   33 1
   7    3    6 1
   8    3   34 1
   9    3   35 1
  10    5   36 1
  11    6    7 am
  12    6   37 1
  13    7    8 1
  14    7   14 2
  15    8    9 ar
  16    8   13 ar
  17    9   10 ar
  18    9   38 1
  19   10   11 ar
  20   10   39 1
  21   11   12 ar
  22   11   15 1
  23   12   13 ar
  24   12   40 1
  25   13   41 1
  26   15   16 1
  27   15   19 1
  28   15   42 1
  29   16   17 1
  30   16   43 1
  31   16   44 1
  32   17   18 1
  33   17   31 1
  34   17   45 1
  35   18   46 1
  36   18   47 1
  37   18   48 1
  38   19   21 1
  39   19   49 1
  40   20   21 ar
  41   20   29 ar
  42   21   22 ar
  43   22   23 ar
  44   22   50 1
  45   23   24 ar
  46   23   30 1
  47   24   25 ar
  48   24   29 ar
  49   25   26 ar
  50   25   51 1
  51   26   27 ar
  52   26   52 1
  53   27   28 ar
  54   27   53 1
  55   28   29 ar
  56   28   54 1
  57   30   55 1
  58   30   56 1
  59   30   57 1
  60   31   58 1
  61   31   59 1
  62   31   60 1

#	End of record

