#	Name: ASD01910169
#	Creating user name:	WinNT
#	Creation time:	15. 06. 2019 19:55

#	Modifying user name:	WinNT
#	Modification time:	15. 06. 2019 19:55

#	Program:	/corina/corina34_cracker 3.40 0067  02.08.2006

@<TRIPOS>MOLECULE
ASD01910169
  41   43    0    0    0
SMALL
NO_CHARGES


@<TRIPOS>ATOM
   1 C1            -0.2187     1.3750     0.0962 C.ar    
   2 C2             0.0372     0.0376     0.3289 C.ar    
   3 C3             1.3445    -0.4330     0.3197 C.ar    
   4 C4             2.3933     0.4416     0.0760 C.ar    
   5 C5             2.1329     1.7846    -0.1579 C.ar    
   6 C6             0.8236     2.2489    -0.1468 C.ar    
   7 N7             3.1874     2.6698    -0.4035 N.am    
   8 C8             4.2615     2.2597    -1.1068 C.2     
   9 C9             5.3265     3.2196    -1.4535 C.ar    
  10 N10            1.6029    -1.7876     0.5564 N.am    
  11 C11            0.7249    -2.7233     0.1437 C.2     
  12 C12            5.2259     4.5546    -1.0549 C.ar    
  13 C13            6.2244     5.4465    -1.3821 C.ar    
  14 C14            7.3281     5.0255    -2.1053 C.ar    
  15 C15            7.4400     3.7087    -2.5061 C.ar    
  16 C16            6.4482     2.7962    -2.1800 C.ar    
  17 O17           -0.2420    -2.3998    -0.5131 O.2     
  18 O18            4.3527     1.0984    -1.4556 O.2     
  19 O19            6.5570     1.5022    -2.5726 O.3     
  20 C20            7.7215     1.1470    -3.3208 C.3     
  21 C21            0.9447    -4.1714     0.4984 C.3     
  22 C22           -0.0874    -5.1851     0.0004 C.3     
  23 C23            1.3017    -5.1309    -0.6386 C.3     
  24 H24           -1.2361     1.7375     0.0998 H       
  25 H25           -0.7797    -0.6429     0.5186 H       
  26 H26            3.4103     0.0783     0.0686 H       
  27 H27            0.6202     3.2939    -0.3287 H       
  28 H28            3.1459     3.5788    -0.0677 H       
  29 H29            2.4139    -2.0534     1.0175 H       
  30 H30            4.3668     4.8874    -0.4915 H       
  31 H31            6.1457     6.4785    -1.0735 H       
  32 H32            8.1057     5.7313    -2.3576 H       
  33 H33            8.3033     3.3882    -3.0704 H       
  34 H34            7.7578     1.7353    -4.2376 H       
  35 H35            8.6116     1.3480    -2.7246 H       
  36 H36            7.6833     0.0867    -3.5707 H       
  37 H37            1.3994    -4.3531     1.4722 H       
  38 H38           -0.3113    -6.0340     0.6465 H       
  39 H39           -0.9253    -4.8047    -0.5837 H       
  40 H40            1.3777    -4.7147    -1.6432 H       
  41 H41            1.9916    -5.9440    -0.4130 H       
@<TRIPOS>BOND
   1    1    2 ar
   2    1    6 ar
   3    1   24 1
   4    2    3 ar
   5    2   25 1
   6    3    4 ar
   7    3   10 1
   8    4    5 ar
   9    4   26 1
  10    5    6 ar
  11    5    7 1
  12    6   27 1
  13    7    8 am
  14    7   28 1
  15    8    9 1
  16    8   18 2
  17    9   12 ar
  18    9   16 ar
  19   10   11 am
  20   10   29 1
  21   11   17 2
  22   11   21 1
  23   12   13 ar
  24   12   30 1
  25   13   14 ar
  26   13   31 1
  27   14   15 ar
  28   14   32 1
  29   15   16 ar
  30   15   33 1
  31   16   19 1
  32   19   20 1
  33   20   34 1
  34   20   35 1
  35   20   36 1
  36   21   22 1
  37   21   23 1
  38   21   37 1
  39   22   23 1
  40   22   38 1
  41   22   39 1
  42   23   40 1
  43   23   41 1

#	End of record

