#	Name: ASD01915358
#	Creating user name:	WinNT
#	Creation time:	15. 06. 2019 20:05

#	Modifying user name:	WinNT
#	Modification time:	15. 06. 2019 20:05

#	Program:	/corina/corina34_cracker 3.40 0067  02.08.2006

@<TRIPOS>MOLECULE
ASD01915358
  51   54    0    0    0
SMALL
NO_CHARGES


@<TRIPOS>ATOM
   1 C1            -0.0226     1.3700    -0.0602 C.ar    
   2 C2            -0.0091    -0.0246     0.0372 C.ar    
   3 C3            -1.1953    -0.7239     0.1367 C.ar    
   4 C4            -2.4019    -0.0526     0.1408 C.ar    
   5 C5            -2.4307     1.3408     0.0446 C.ar    
   6 C6            -1.2384     2.0543    -0.0508 C.ar    
   7 C7            -3.7243     2.0571     0.0487 C.2     
   8 O8            -3.8354     3.1076     0.6500 O.2     
   9 N9            -4.7802     1.5451    -0.6142 N.am    
  10 C10           -6.1064     2.1746    -0.5228 C.3     
  11 C11           -6.6390     2.3959    -1.9425 C.3     
  12 N12           -6.6040     1.1252    -2.6788 N.3     
  13 C13           -5.2274     0.6355    -2.8313 C.3     
  14 C14           -4.6356     0.3456    -1.4529 C.3     
  15 C15           -7.2261     1.2475    -3.9091 C.ar    
  16 C16            1.2083     2.0945    -0.1634 C.1     
  17 C17            2.2174     2.6885    -0.2480 C.1     
  18 C18            3.4482     3.4130    -0.3511 C.ar    
  19 C19            3.4364     4.8069    -0.4486 C.ar    
  20 C20            4.6258     5.4980    -0.5477 C.ar    
  21 C21            5.8289     4.8143    -0.5512 C.ar    
  22 C22            5.8485     3.4340    -0.4551 C.ar    
  23 C23            4.6672     2.7300    -0.3491 C.ar    
  24 N24           -7.2878     0.1940    -4.7102 N.ar    
  25 C25           -7.8752     0.2771    -5.8924 C.ar    
  26 C26           -8.4295     1.4841    -6.2887 C.ar    
  27 C27           -8.3473     2.5659    -5.4262 C.ar    
  28 N28           -7.7506     2.4138    -4.2554 N.ar    
  29 C29            1.3029    -0.7660     0.0330 C.3     
  30 H30           -1.1794    -1.8012     0.2114 H       
  31 H31           -3.3259    -0.6063     0.2182 H       
  32 H32           -1.2552     3.1316    -0.1254 H       
  33 H33           -6.7850     1.5209     0.0251 H       
  34 H34           -6.0224     3.1327    -0.0098 H       
  35 H35           -7.6653     2.7596    -1.8934 H       
  36 H36           -6.0166     3.1300    -2.4542 H       
  37 H37           -5.2301    -0.2775    -3.4268 H       
  38 H38           -4.6247     1.3941    -3.3306 H       
  39 H39           -3.5802     0.0923    -1.5535 H       
  40 H40           -5.1717    -0.4835    -0.9913 H       
  41 H41            2.4981     5.3418    -0.4466 H       
  42 H42            4.6182     6.5754    -0.6231 H       
  43 H43            6.7572     5.3607    -0.6298 H       
  44 H44            6.7912     2.9071    -0.4588 H       
  45 H45            4.6840     1.6527    -0.2742 H       
  46 H46           -7.9220    -0.5851    -6.5413 H       
  47 H47           -8.9147     1.5796    -7.2489 H       
  48 H48           -8.7687     3.5204    -5.7049 H       
  49 H49            1.6631    -0.8728     1.0562 H       
  50 H50            1.1611    -1.7530    -0.4071 H       
  51 H51            2.0335    -0.2084    -0.5530 H       
@<TRIPOS>BOND
   1    1    2 ar
   2    1   16 1
   3    1    6 ar
   4    2    3 ar
   5    2   29 1
   6    3    4 ar
   7    3   30 1
   8    4    5 ar
   9    4   31 1
  10    5    6 ar
  11    5    7 1
  12    6   32 1
  13    7    8 2
  14    7    9 am
  15    9   10 1
  16    9   14 1
  17   10   11 1
  18   10   33 1
  19   10   34 1
  20   11   12 1
  21   11   35 1
  22   11   36 1
  23   12   13 1
  24   12   15 1
  25   13   14 1
  26   13   37 1
  27   13   38 1
  28   14   39 1
  29   14   40 1
  30   15   24 ar
  31   15   28 ar
  32   16   17 3
  33   17   18 1
  34   18   19 ar
  35   18   23 ar
  36   19   20 ar
  37   19   41 1
  38   20   21 ar
  39   20   42 1
  40   21   22 ar
  41   21   43 1
  42   22   23 ar
  43   22   44 1
  44   23   45 1
  45   24   25 ar
  46   25   26 ar
  47   25   46 1
  48   26   27 ar
  49   26   47 1
  50   27   28 ar
  51   27   48 1
  52   29   49 1
  53   29   50 1
  54   29   51 1

#	End of record

