#	Name: ASD00960005
#	Creating user name:	WinNT
#	Creation time:	15. 06. 2019 18:53

#	Modifying user name:	WinNT
#	Modification time:	15. 06. 2019 18:53

#	Program:	/corina/corina34_cracker 3.40 0067  02.08.2006

@<TRIPOS>MOLECULE
ASD00960005
  10   10    0    0    0
SMALL
NO_CHARGES


@<TRIPOS>ATOM
   1 N1            -0.0154     1.2842     0.0091 N.2     
   2 N2             0.0021    -0.0041     0.0020 N.2     
   3 C3             1.2540    -0.3919    -0.0120 C.2     
   4 N4             2.0046     0.7254    -0.0132 N.pl3   
   5 N5             1.1929     1.7282    -0.0001 N.2     
   6 C6             1.7557    -1.8129    -0.0237 C.3     
   7 H7             2.9736     0.7685    -0.0222 H       
   8 H8             1.8671    -2.1504    -1.0541 H       
   9 H9             2.7206    -1.8617     0.4809 H       
  10 H10            1.0423    -2.4543     0.4937 H       
@<TRIPOS>BOND
   1    1    2 1
   2    1    5 2
   3    2    3 2
   4    3    4 1
   5    3    6 1
   6    4    5 1
   7    4    7 1
   8    6    8 1
   9    6    9 1
  10    6   10 1

#	End of record

