#	Name: ASD01914073
#	Creating user name:	WinNT
#	Creation time:	15. 06. 2019 20:02

#	Modifying user name:	WinNT
#	Modification time:	15. 06. 2019 20:02

#	Program:	/corina/corina34_cracker 3.40 0067  02.08.2006

@<TRIPOS>MOLECULE
ASD01914073
  49   52    0    0    0
SMALL
NO_CHARGES


@<TRIPOS>ATOM
   1 C1            -0.9869    -0.1716    -0.7563 C.ar    
   2 C2            -0.7723    -1.5372    -0.6779 C.ar    
   3 C3             1.5969    -1.1613    -0.6341 C.ar    
   4 C4             1.3805     0.2066    -0.7126 C.ar    
   5 O5             2.8648    -1.6469    -0.5742 O.3     
   6 C6             3.0129    -3.0660    -0.4948 C.3     
   7 C7             4.4776    -3.4157    -0.4368 C.ar    
   8 N8             4.8397    -4.6820    -0.3598 N.ar    
   9 C9             6.1056    -5.0413    -0.3067 C.ar    
  10 C10            7.1174    -4.0809    -0.3299 C.ar    
  11 C11            6.7643    -2.7284    -0.4112 C.ar    
  12 C12            5.4206    -2.4039    -0.4708 C.ar    
  13 C13            8.5383    -4.4845    -0.2692 C.2     
  14 N14            8.8654    -5.7896    -0.1907 N.am    
  15 O15            9.4116    -3.6393    -0.2902 O.2     
  16 C16            0.5182    -2.0330    -0.6169 C.ar    
  17 C17           10.2721    -6.1963    -0.2375 C.3     
  18 F18           -1.8232    -2.3860    -0.6607 F       
  19 C19            0.0890     0.6997    -0.7735 C.ar    
  20 F20           -0.1221     2.0319    -0.8504 F       
  21 C21           10.9218    -5.9042    -1.5655 C.ar    
  22 C22           10.1401    -5.6273    -2.6714 C.ar    
  23 C23           10.7361    -5.3594    -3.8896 C.ar    
  24 C24           12.1138    -5.3679    -4.0017 C.ar    
  25 C25           12.8956    -5.6439    -2.8955 C.ar    
  26 C26           12.2997    -5.9076    -1.6764 C.ar    
  27 C27           11.0934    -5.7135     0.9696 C.3     
  28 C28           10.6839    -7.0194     1.6709 C.3     
  29 C29           10.5162    -7.6287     0.2659 C.3     
  30 H30           -1.9943     0.2141    -0.8084 H       
  31 H31            2.2196     0.8864    -0.7257 H       
  32 H32            2.5157    -3.4336     0.4028 H       
  33 H33            2.5636    -3.5279    -1.3740 H       
  34 H34            6.3627    -6.0884    -0.2441 H       
  35 H35            7.5214    -1.9585    -0.4313 H       
  36 H36            5.1109    -1.3713    -0.5342 H       
  37 H37            8.1695    -6.4596    -0.1032 H       
  38 H38            0.6853    -3.0982    -0.5554 H       
  39 H39            9.0636    -5.6207    -2.5838 H       
  40 H40           10.1253    -5.1438    -4.7538 H       
  41 H41           12.5795    -5.1593    -4.9535 H       
  42 H42           13.9720    -5.6509    -2.9832 H       
  43 H43           12.9105    -6.1232    -0.8122 H       
  44 H44           12.1625    -5.6419     0.7698 H       
  45 H45           10.6894    -4.8186     1.4428 H       
  46 H46           11.4870    -7.4739     2.2510 H       
  47 H47            9.7499    -6.9418     2.2274 H       
  48 H48            9.6465    -8.2792     0.1730 H       
  49 H49           11.4276    -8.0805    -0.1257 H       
@<TRIPOS>BOND
   1    1    2 ar
   2    1   19 ar
   3    1   30 1
   4    2   16 ar
   5    2   18 1
   6    3    4 ar
   7    3    5 1
   8    3   16 ar
   9    4   19 ar
  10    4   31 1
  11    5    6 1
  12    6    7 1
  13    6   32 1
  14    6   33 1
  15    7    8 ar
  16    7   12 ar
  17    8    9 ar
  18    9   10 ar
  19    9   34 1
  20   10   11 ar
  21   10   13 1
  22   11   12 ar
  23   11   35 1
  24   12   36 1
  25   13   14 am
  26   13   15 2
  27   14   17 1
  28   14   37 1
  29   16   38 1
  30   17   21 1
  31   17   27 1
  32   17   29 1
  33   19   20 1
  34   21   22 ar
  35   21   26 ar
  36   22   23 ar
  37   22   39 1
  38   23   24 ar
  39   23   40 1
  40   24   25 ar
  41   24   41 1
  42   25   26 ar
  43   25   42 1
  44   26   43 1
  45   27   28 1
  46   27   44 1
  47   27   45 1
  48   28   29 1
  49   28   46 1
  50   28   47 1
  51   29   48 1
  52   29   49 1

#	End of record

