#	Name: ASD01914231
#	Creating user name:	WinNT
#	Creation time:	15. 06. 2019 20:03

#	Modifying user name:	WinNT
#	Modification time:	15. 06. 2019 20:03

#	Program:	/corina/corina34_cracker 3.40 0067  02.08.2006

@<TRIPOS>MOLECULE
ASD01914231
  31   33    0    0    0
SMALL
NO_CHARGES


@<TRIPOS>ATOM
   1 N1            -0.0169     1.3986     0.0097 N.pl3   
   2 N2             0.0021    -0.0041     0.0020 N.2     
   3 N3             1.2208    -0.4155    -0.0118 N.2     
   4 C4             2.0689     0.6325    -0.0143 C.ar    
   5 C5             1.2958     1.8066    -0.0006 C.ar    
   6 C6             1.9211     3.0486     0.0001 C.ar    
   7 C7             3.2961     3.1198    -0.0127 C.ar    
   8 C8             4.0606     1.9605    -0.0266 C.ar    
   9 C9             3.4661     0.7327    -0.0275 C.ar    
  10 C10           -1.2024     2.2592     0.0203 C.3     
  11 C11           -1.6076     2.5515     1.4664 C.3     
  12 C12           -2.7988     3.4163     1.4770 C.1     
  13 C13           -3.7488     4.1059     1.4855 C.1     
  14 C14           -4.9076     4.9472     1.4958 C.ar    
  15 C15           -5.4615     5.3478     2.7123 C.ar    
  16 C16           -6.5811     6.1605     2.7055 C.ar    
  17 C17           -7.1120     6.5475     1.4826 C.ar    
  18 C18           -6.5125     6.1139     0.3146 C.ar    
  19 N19           -5.4436     5.3446     0.3476 N.ar    
  20 H20            1.3311     3.9531     0.0102 H       
  21 H21            3.7834     4.0837    -0.0121 H       
  22 H22            5.1382     2.0317    -0.0373 H       
  23 H23            4.0720    -0.1613    -0.0381 H       
  24 H24           -0.9763     3.1955    -0.4900 H       
  25 H25           -2.0220     1.7551    -0.4918 H       
  26 H26           -1.8338     1.6152     1.9767 H       
  27 H27           -0.7881     3.0556     1.9786 H       
  28 H28           -5.0228     5.0276     3.6458 H       
  29 H29           -7.0322     6.4864     3.6311 H       
  30 H30           -7.9856     7.1814     1.4440 H       
  31 H31           -6.9239     6.4133    -0.6380 H       
@<TRIPOS>BOND
   1    1    2 1
   2    1    5 1
   3    1   10 1
   4    2    3 2
   5    3    4 1
   6    4    5 ar
   7    4    9 ar
   8    5    6 ar
   9    6    7 ar
  10    6   20 1
  11    7    8 ar
  12    7   21 1
  13    8    9 ar
  14    8   22 1
  15    9   23 1
  16   10   11 1
  17   10   24 1
  18   10   25 1
  19   11   12 1
  20   11   26 1
  21   11   27 1
  22   12   13 3
  23   13   14 1
  24   14   15 ar
  25   14   19 ar
  26   15   16 ar
  27   15   28 1
  28   16   17 ar
  29   16   29 1
  30   17   18 ar
  31   17   30 1
  32   18   19 ar
  33   18   31 1

#	End of record

