#	Name: ASD01813500
#	Creating user name:	WinNT
#	Creation time:	15. 06. 2019 19:30

#	Modifying user name:	WinNT
#	Modification time:	15. 06. 2019 19:30

#	Program:	/corina/corina34_cracker 3.40 0067  02.08.2006

@<TRIPOS>MOLECULE
ASD01813500
  47   50    0    0    0
SMALL
NO_CHARGES


@<TRIPOS>ATOM
   1 C1            -0.0168     1.3834    -0.0462 C.ar    
   2 C2             0.0020    -0.0038    -0.0533 C.ar    
   3 C3             1.1976    -0.6920    -0.0500 C.ar    
   4 C4             2.4035     0.0084    -0.0394 C.ar    
   5 C5             2.3796     1.4130    -0.0323 C.ar    
   6 C6             1.1627     2.0947    -0.0358 C.ar    
   7 N7             3.6056    -0.6668    -0.0350 N.pl3   
   8 C8             4.7891    -0.0410    -0.0236 C.2     
   9 C9             4.8932     1.3356    -0.0153 C.2     
  10 C10            3.6619     2.1417    -0.0212 C.2     
  11 O11            3.7002     3.3596    -0.0146 O.2     
  12 C12            6.2115     1.9851    -0.0018 C.2     
  13 O13            6.3001     3.3303     0.0062 O.3     
  14 O14            7.2221     1.3094     0.0022 O.2     
  15 C15            3.5871    -2.1316    -0.0427 C.3     
  16 C16            3.4445    -2.6248    -1.4595 C.ar    
  17 N17            2.2425    -2.7287    -1.9925 N.ar    
  18 C18            2.0630    -3.1541    -3.2261 C.ar    
  19 C19            3.1535    -3.5131    -4.0185 C.ar    
  20 C20            4.4419    -3.4136    -3.4807 C.ar    
  21 C21            4.5769    -2.9558    -2.1819 C.ar    
  22 C22            2.9518    -3.9909    -5.4026 C.2     
  23 F23            1.2003    -2.0430    -0.0565 F       
  24 C24            2.2223    -5.2872    -5.6031 C.3     
  25 C25            1.7415    -5.4026    -7.0511 C.3     
  26 C26            2.9209    -5.0934    -7.9814 C.3     
  27 C27            3.2800    -3.6133    -7.8343 C.3     
  28 C28            3.4159    -3.2549    -6.3832 C.2     
  29 H29           -0.9608     1.9082    -0.0535 H       
  30 H30           -0.9293    -0.5507    -0.0611 H       
  31 H31            1.1454     3.1745    -0.0306 H       
  32 H32            5.6925    -0.6328    -0.0203 H       
  33 H33            7.1887     3.7117     0.0150 H       
  34 H34            4.5175    -2.5090     0.3815 H       
  35 H35            2.7459    -2.4875     0.5522 H       
  36 H36            1.0629    -3.2260    -3.6274 H       
  37 H37            5.3086    -3.6834    -4.0658 H       
  38 H38            5.5556    -2.8657    -1.7341 H       
  39 H39            2.8918    -6.1172    -5.3774 H       
  40 H40            1.3635    -5.3259    -4.9330 H       
  41 H41            1.3830    -6.4148    -7.2384 H       
  42 H42            0.9380    -4.6877    -7.2283 H       
  43 H43            3.7775    -5.7074    -7.7034 H       
  44 H44            2.6376    -5.3007    -9.0133 H       
  45 H45            4.2217    -3.4172    -8.3470 H       
  46 H46            2.4940    -3.0046    -8.2813 H       
  47 H47            3.9322    -2.3403    -6.1318 H       
@<TRIPOS>BOND
   1    1    2 ar
   2    1    6 ar
   3    1   29 1
   4    2    3 ar
   5    2   30 1
   6    3    4 ar
   7    3   23 1
   8    4    5 ar
   9    4    7 1
  10    5    6 ar
  11    5   10 1
  12    6   31 1
  13    7    8 1
  14    7   15 1
  15    8    9 2
  16    8   32 1
  17    9   10 1
  18    9   12 1
  19   10   11 2
  20   12   13 1
  21   12   14 2
  22   13   33 1
  23   15   16 1
  24   15   34 1
  25   15   35 1
  26   16   17 ar
  27   16   21 ar
  28   17   18 ar
  29   18   19 ar
  30   18   36 1
  31   19   20 ar
  32   19   22 1
  33   20   21 ar
  34   20   37 1
  35   21   38 1
  36   22   24 1
  37   22   28 2
  38   24   25 1
  39   24   39 1
  40   24   40 1
  41   25   26 1
  42   25   41 1
  43   25   42 1
  44   26   27 1
  45   26   43 1
  46   26   44 1
  47   27   28 1
  48   27   45 1
  49   27   46 1
  50   28   47 1

#	End of record

