#	Name: ASD03331592
#	Creating user name:	WinNT
#	Creation time:	15. 06. 2019 20:39

#	Modifying user name:	WinNT
#	Modification time:	15. 06. 2019 20:39

#	Program:	/corina/corina34_cracker 3.40 0067  02.08.2006

@<TRIPOS>MOLECULE
ASD03331592
  56   58    0    0    0
SMALL
NO_CHARGES


@<TRIPOS>ATOM
   1 C1            -0.0180     1.4750     0.0102 C.ar    
   2 C2             0.0021    -0.0041     0.0020 C.2     
   3 N3            -1.0252    -0.8163     0.3867 N.pl3   
   4 C4            -0.5989    -2.1005     0.2524 C.2     
   5 C5             0.6704    -2.0540    -0.2373 C.2     
   6 N6             1.0085    -0.7538    -0.3816 N.2     
   7 C7             1.5211    -3.2137    -0.5579 C.2     
   8 O8             1.1001    -4.3420    -0.3884 O.2     
   9 N9             2.7657    -3.0240    -1.0390 N.am    
  10 C10            3.6114    -4.1769    -1.3578 C.3     
  11 C11            4.3199    -4.6402    -0.1110 C.2     
  12 C12           -2.3544    -0.3961     0.8412 C.3     
  13 C13           -2.9345    -1.4708     1.7647 C.3     
  14 C14           -3.6359    -2.5432     0.9339 C.3     
  15 O15           -2.7163    -3.1971     0.0675 O.3     
  16 C16           -1.3968    -3.3276     0.6078 C.3     
  17 C17            4.6448    -3.7754    -2.4122 C.3     
  18 C18            1.1793     2.1911    -0.0016 C.ar    
  19 N19            5.1574    -5.6948    -0.1642 N.am    
  20 C20            1.1546     3.5722     0.0061 C.ar    
  21 C21           -0.0584     4.2459     0.0260 C.ar    
  22 C22           -1.2490     3.5376     0.0381 C.ar    
  23 C23           -1.2345     2.1584     0.0238 C.ar    
  24 F24           -0.0785     5.5967     0.0339 F       
  25 F25            2.3127     4.2678    -0.0052 F       
  26 C26            5.8461    -6.1452     1.0478 C.3     
  27 O27            4.1364    -4.0641     0.9403 O.2     
  28 C28            3.9303    -3.4240    -3.7187 C.3     
  29 C29            4.9501    -2.9037    -4.7337 C.3     
  30 C30            3.2460    -4.6731    -4.2776 C.3     
  31 H31            3.1014    -2.1240    -1.1742 H       
  32 H32            2.9921    -4.9857    -1.7456 H       
  33 H33           -2.2726     0.5453     1.3845 H       
  34 H34           -3.0090    -0.2644    -0.0204 H       
  35 H35           -2.1290    -1.9274     2.3400 H       
  36 H36           -3.6516    -1.0140     2.4467 H       
  37 H37           -4.0833    -3.2787     1.6024 H       
  38 H38           -4.4209    -2.0779     0.3377 H       
  39 H39           -0.9157    -4.2103     0.1866 H       
  40 H40           -1.4544    -3.4240     1.6920 H       
  41 H41            5.2053    -2.9093    -2.0603 H       
  42 H42            5.3296    -4.6058    -2.5845 H       
  43 H43            2.1233     1.6668    -0.0163 H       
  44 H44            5.3041    -6.1556    -1.0051 H       
  45 H45           -2.1905     4.0664     0.0539 H       
  46 H46           -2.1637     1.6079     0.0333 H       
  47 H47            5.1099    -6.4313     1.7990 H       
  48 H48            6.4753    -7.0031     0.8106 H       
  49 H49            6.4654    -5.3365     1.4356 H       
  50 H50            3.1823    -2.6544    -3.5281 H       
  51 H51            5.6981    -3.6733    -4.9243 H       
  52 H52            4.4410    -2.6534    -5.6645 H       
  53 H53            5.4376    -2.0139    -4.3355 H       
  54 H54            2.5195    -5.0437    -3.5545 H       
  55 H55            2.7370    -4.4228    -5.2084 H       
  56 H56            3.9941    -5.4426    -4.4682 H       
@<TRIPOS>BOND
   1    1    2 1
   2    1   18 ar
   3    1   23 ar
   4    2    3 1
   5    2    6 2
   6    3    4 1
   7    3   12 1
   8    4    5 2
   9    4   16 1
  10    5    6 1
  11    5    7 1
  12    7    8 2
  13    7    9 am
  14    9   10 1
  15    9   31 1
  16   10   11 1
  17   10   17 1
  18   10   32 1
  19   11   19 am
  20   11   27 2
  21   12   13 1
  22   12   33 1
  23   12   34 1
  24   13   14 1
  25   13   35 1
  26   13   36 1
  27   14   15 1
  28   14   37 1
  29   14   38 1
  30   15   16 1
  31   16   39 1
  32   16   40 1
  33   17   28 1
  34   17   41 1
  35   17   42 1
  36   18   20 ar
  37   18   43 1
  38   19   26 1
  39   19   44 1
  40   20   21 ar
  41   20   25 1
  42   21   22 ar
  43   21   24 1
  44   22   23 ar
  45   22   45 1
  46   23   46 1
  47   26   47 1
  48   26   48 1
  49   26   49 1
  50   28   29 1
  51   28   30 1
  52   28   50 1
  53   29   51 1
  54   29   52 1
  55   29   53 1
  56   30   54 1
  57   30   55 1
  58   30   56 1

#	End of record

