#	Name: ASD01814094
#	Creating user name:	WinNT
#	Creation time:	15. 06. 2019 19:31

#	Modifying user name:	WinNT
#	Modification time:	15. 06. 2019 19:31

#	Program:	/corina/corina34_cracker 3.40 0067  02.08.2006

@<TRIPOS>MOLECULE
ASD01814094
  44   47    0    0    0
SMALL
NO_CHARGES


@<TRIPOS>ATOM
   1 C1             1.1582     2.2494    -0.5152 C.ar    
   2 C2             0.7818     0.9151    -0.4999 C.ar    
   3 C3             1.7237    -0.0820    -0.3473 C.ar    
   4 C4             3.0705     0.2475    -0.2069 C.ar    
   5 C5             3.4507     1.6003    -0.2232 C.ar    
   6 C6             2.4865     2.5995    -0.3780 C.ar    
   7 N7             4.0208    -0.7400    -0.0528 N.pl3   
   8 C8             5.3259    -0.4752     0.0866 C.2     
   9 C9             5.8187     0.8142     0.0867 C.2     
  10 C10            4.8780     1.9351    -0.0738 C.2     
  11 O11            5.2632     3.0913    -0.0809 O.2     
  12 C12            7.2584     1.0637     0.2434 C.2     
  13 O13            7.7276     2.3274     0.2418 O.3     
  14 O14            8.0263     0.1304     0.3744 O.2     
  15 C15            3.5837    -2.1382    -0.0406 C.3     
  16 C16            3.4403    -2.6321    -1.4571 C.ar    
  17 C17            4.5225    -2.5815    -2.3197 C.ar    
  18 C18            4.3923    -3.0341    -3.6207 C.ar    
  19 C19            3.1762    -3.5390    -4.0594 C.ar    
  20 C20            2.0936    -3.5883    -3.1909 C.ar    
  21 C21            2.2300    -3.1401    -1.8917 C.ar    
  22 N22            3.0408    -3.9978    -5.3767 N.pl3   
  23 F23            1.3400    -1.3773    -0.3336 F       
  24 C24            1.9210    -4.5071    -5.9204 C.2     
  25 C25            2.2109    -4.8350    -7.2307 C.2     
  26 C26            3.5657    -4.4982    -7.4549 C.2     
  27 N27            4.0461    -3.9979    -6.3500 N.2     
  28 F28            5.7055    -2.0897    -1.8910 F       
  29 F29            2.8518     3.9001    -0.3940 F       
  30 C30            1.2830    -5.4250    -8.2103 C.2     
  31 O31            1.7054    -5.6941    -9.4613 O.3     
  32 O32            0.1363    -5.6693    -7.8905 O.2     
  33 H33            0.4097     3.0179    -0.6396 H       
  34 H34           -0.2603     0.6531    -0.6082 H       
  35 H35            6.0159    -1.2977     0.2033 H       
  36 H36            8.6819     2.4416     0.3480 H       
  37 H37            4.3223    -2.7453     0.4828 H       
  38 H38            2.6235    -2.2143     0.4697 H       
  39 H39            5.2358    -2.9942    -4.2941 H       
  40 H40            1.1463    -3.9804    -3.5303 H       
  41 H41            1.3879    -3.1790    -1.2166 H       
  42 H42            0.9704    -4.6360    -5.4242 H       
  43 H43            4.1069    -4.6285    -8.3803 H       
  44 H44            1.0602    -6.0811   -10.0689 H       
@<TRIPOS>BOND
   1    1    2 ar
   2    1    6 ar
   3    1   33 1
   4    2    3 ar
   5    2   34 1
   6    3    4 ar
   7    3   23 1
   8    4    5 ar
   9    4    7 1
  10    5    6 ar
  11    5   10 1
  12    6   29 1
  13    7    8 1
  14    7   15 1
  15    8    9 2
  16    8   35 1
  17    9   10 1
  18    9   12 1
  19   10   11 2
  20   12   13 1
  21   12   14 2
  22   13   36 1
  23   15   16 1
  24   15   37 1
  25   15   38 1
  26   16   17 ar
  27   16   21 ar
  28   17   18 ar
  29   17   28 1
  30   18   19 ar
  31   18   39 1
  32   19   20 ar
  33   19   22 1
  34   20   21 ar
  35   20   40 1
  36   21   41 1
  37   22   24 1
  38   22   27 1
  39   24   25 2
  40   24   42 1
  41   25   26 1
  42   25   30 1
  43   26   27 2
  44   26   43 1
  45   30   31 1
  46   30   32 2
  47   31   44 1

#	End of record

