#	Name: ASD01810980
#	Creating user name:	WinNT
#	Creation time:	15. 06. 2019 19:25

#	Modifying user name:	WinNT
#	Modification time:	15. 06. 2019 19:25

#	Program:	/corina/corina34_cracker 3.40 0067  02.08.2006

@<TRIPOS>MOLECULE
ASD01810980
  35   36    0    0    0
SMALL
NO_CHARGES


@<TRIPOS>ATOM
   1 C1             0.5742     1.4207    -0.0513 C.2     
   2 C2             0.2889    -0.0287    -0.0276 C.ar    
   3 C3             1.3372    -0.9502    -0.0991 C.ar    
   4 C4             1.0721    -2.3048    -0.0776 C.ar    
   5 C5            -0.2290    -2.7588     0.0149 C.ar    
   6 C6            -1.2862    -1.8488     0.0870 C.ar    
   7 C7            -1.0256    -0.4802     0.0717 C.ar    
   8 O8             1.7233     1.8140    -0.0289 O.2     
   9 O9            -0.4398     2.3060    -0.1032 O.3     
  10 C10            2.7601    -0.4641    -0.2003 C.3     
  11 C11           -0.5087    -4.2394     0.0377 C.3     
  12 C12           -0.1667    -4.9512    -1.2819 C.3     
  13 C13            0.3795    -6.1062    -0.4260 C.3     
  14 C14            0.6135    -5.0684     0.6844 C.3     
  15 C15           -2.6784    -2.3369     0.1852 C.2     
  16 N16           -3.6195    -1.5750     0.7770 N.am    
  17 O17           -2.9742    -3.4253    -0.2680 O.2     
  18 C18           -0.0852     3.7139    -0.1237 C.3     
  19 H19            1.8857    -3.0127    -0.1338 H       
  20 H20           -1.8392     0.2275     0.1317 H       
  21 H21            3.1351    -0.2281     0.7956 H       
  22 H22            3.3791    -1.2424    -0.6466 H       
  23 H23            2.7952     0.4298    -0.8231 H       
  24 H24           -1.5027    -4.4766     0.4169 H       
  25 H25           -1.0425    -5.2213    -1.8720 H       
  26 H26            0.5987    -4.4417    -1.8673 H       
  27 H27           -0.3711    -6.8549    -0.1728 H       
  28 H28            1.2988    -6.5424    -0.8168 H       
  29 H29            1.5922    -4.5909     0.6366 H       
  30 H30            0.3676    -5.4331     1.6818 H       
  31 H31           -3.3834    -0.7064     1.1386 H       
  32 H32           -4.5328    -1.8952     0.8414 H       
  33 H33            0.5296     3.9210    -0.9996 H       
  34 H34           -0.9925     4.3165    -0.1660 H       
  35 H35            0.4734     3.9611     0.7790 H       
@<TRIPOS>BOND
   1    1    2 1
   2    1    8 2
   3    1    9 1
   4    2    3 ar
   5    2    7 ar
   6    3    4 ar
   7    3   10 1
   8    4    5 ar
   9    4   19 1
  10    5    6 ar
  11    5   11 1
  12    6    7 ar
  13    6   15 1
  14    7   20 1
  15    9   18 1
  16   10   21 1
  17   10   22 1
  18   10   23 1
  19   11   12 1
  20   11   14 1
  21   11   24 1
  22   12   13 1
  23   12   25 1
  24   12   26 1
  25   13   14 1
  26   13   27 1
  27   13   28 1
  28   14   29 1
  29   14   30 1
  30   15   16 am
  31   15   17 2
  32   16   31 1
  33   16   32 1
  34   18   33 1
  35   18   34 1
  36   18   35 1

#	End of record

