#	Name: ASD01881821
#	Creating user name:	WinNT
#	Creation time:	15. 06. 2019 19:43

#	Modifying user name:	WinNT
#	Modification time:	15. 06. 2019 19:43

#	Program:	/corina/corina34_cracker 3.40 0067  02.08.2006

@<TRIPOS>MOLECULE
ASD01881821
  34   36    0    0    0
SMALL
NO_CHARGES


@<TRIPOS>ATOM
   1 N1            -0.0014     1.2492    -0.3525 N.pl3   
   2 N2             0.0043    -0.0099    -0.0805 N.2     
   3 N3             1.1967    -0.4490     0.1213 N.2     
   4 C4             2.0736     0.5656    -0.0188 C.ar    
   5 C5             1.2974     1.6974    -0.3325 C.ar    
   6 C6             3.4622     0.6879     0.0800 C.ar    
   7 C7             4.0526     1.9180    -0.1319 C.ar    
   8 C8             3.2736     3.0304    -0.4417 C.ar    
   9 C9             1.9145     2.9239    -0.5419 C.ar    
  10 O10            5.4033     2.0444    -0.0370 O.3     
  11 C11            5.9405     3.3642    -0.1452 C.3     
  12 C12            7.2285     3.4593     0.6753 C.3     
  13 C13            6.2466     3.6715    -1.6124 C.3     
  14 F14            5.0534     3.6967    -2.3423 F       
  15 F15            6.9308     3.2909     2.0318 F       
  16 C16           -1.1865     2.0611    -0.6396 C.3     
  17 C17           -1.7315     2.6470     0.6645 C.3     
  18 C18           -2.9042     3.6245     0.5641 C.3     
  19 C19           -3.1305     2.2111     1.1045 C.3     
  20 Br20           4.5241    -0.8192     0.5009 Br      
  21 H21            3.7482     3.9867    -0.6046 H       
  22 H22            1.3208     3.7932    -0.7830 H       
  23 H23            5.2148     4.0841     0.2331 H       
  24 H24            7.9211     2.6805     0.3559 H       
  25 H25            7.6854     4.4370     0.5222 H       
  26 H26            6.7379     4.6418    -1.6855 H       
  27 H27            6.9031     2.9006    -2.0158 H       
  28 H28           -0.9165     2.8713    -1.3170 H       
  29 H29           -1.9501     1.4377    -1.1049 H       
  30 H30           -0.9916     2.8271     1.4443 H       
  31 H31           -2.9361     4.4474     1.2781 H       
  32 H32           -3.2875     3.8502    -0.4310 H       
  33 H33           -3.6627     1.5070     0.4649 H       
  34 H34           -3.3112     2.1042     2.1741 H       
@<TRIPOS>BOND
   1    1    2 1
   2    1    5 1
   3    1   16 1
   4    2    3 2
   5    3    4 1
   6    4    5 ar
   7    4    6 ar
   8    5    9 ar
   9    6    7 ar
  10    6   20 1
  11    7    8 ar
  12    7   10 1
  13    8    9 ar
  14    8   21 1
  15    9   22 1
  16   10   11 1
  17   11   12 1
  18   11   13 1
  19   11   23 1
  20   12   15 1
  21   12   24 1
  22   12   25 1
  23   13   14 1
  24   13   26 1
  25   13   27 1
  26   16   17 1
  27   16   28 1
  28   16   29 1
  29   17   18 1
  30   17   19 1
  31   17   30 1
  32   18   19 1
  33   18   31 1
  34   18   32 1
  35   19   33 1
  36   19   34 1

#	End of record

