#	Name: ASD04550030
#	Creating user name:	WinNT
#	Creation time:	15. 06. 2019 20:49

#	Modifying user name:	WinNT
#	Modification time:	15. 06. 2019 20:49

#	Program:	/corina/corina34_cracker 3.40 0067  02.08.2006

@<TRIPOS>MOLECULE
ASD04550030
  29   30    0    0    0
SMALL
NO_CHARGES


@<TRIPOS>ATOM
   1 C1            -0.0159     1.3910    -0.0139 C.ar    
   2 C2             0.0046    -0.0042    -0.0741 C.ar    
   3 C3            -1.1815    -0.7082    -0.0884 C.ar    
   4 C4            -2.3897    -0.0353    -0.0433 C.ar    
   5 C5            -2.4176     1.3473     0.0159 C.ar    
   6 C6            -1.2394     2.0635     0.0372 C.ar    
   7 C7            -3.7384     2.0712     0.0637 C.3     
   8 C8            -4.5486     1.7375    -1.1906 C.3     
   9 C9             1.2506     2.1520     0.0017 C.2     
  10 C10            2.5361     1.4402     0.0967 C.2     
  11 O11            1.2313     3.3663    -0.0640 O.2     
  12 N12            3.7261     1.9906     0.0072 N.2     
  13 C13            4.6494     1.0376     0.1403 C.2     
  14 C14            4.0066    -0.1407     0.3179 C.2     
  15 O15            2.6890     0.1180     0.2956 O.3     
  16 C16           -4.5048     1.6378     1.2868 C.2     
  17 O17           -4.0275     0.8246     2.0421 O.2     
  18 O18           -5.7178     2.1553     1.5370 O.3     
  19 H19            0.9470    -0.5306    -0.1097 H       
  20 H20           -1.1671    -1.7871    -0.1352 H       
  21 H21           -3.3154    -0.5915    -0.0548 H       
  22 H22           -1.2625     3.1423     0.0838 H       
  23 H23           -3.5623     3.1460     0.1072 H       
  24 H24           -5.5039     2.2611    -1.1560 H       
  25 H25           -3.9942     2.0510    -2.0752 H       
  26 H26           -4.7247     0.6627    -1.2341 H       
  27 H27            5.7195     1.1802     0.1112 H       
  28 H28            4.4675    -1.1076     0.4559 H       
  29 H29           -6.1710     1.8467     2.3335 H       
@<TRIPOS>BOND
   1    1    2 ar
   2    1    9 1
   3    1    6 ar
   4    2    3 ar
   5    2   19 1
   6    3    4 ar
   7    3   20 1
   8    4    5 ar
   9    4   21 1
  10    5    6 ar
  11    5    7 1
  12    6   22 1
  13    7    8 1
  14    7   16 1
  15    7   23 1
  16    8   24 1
  17    8   25 1
  18    8   26 1
  19    9   10 1
  20    9   11 2
  21   10   12 2
  22   10   15 1
  23   12   13 1
  24   13   14 2
  25   13   27 1
  26   14   15 1
  27   14   28 1
  28   16   17 2
  29   16   18 1
  30   18   29 1

#	End of record

