#	Name: ASD05730023
#	Creating user name:	WinNT
#	Creation time:	15. 06. 2019 21:02

#	Modifying user name:	WinNT
#	Modification time:	15. 06. 2019 21:02

#	Program:	/corina/corina34_cracker 3.40 0067  02.08.2006

@<TRIPOS>MOLECULE
ASD05730023
  68   71    0    0    0
SMALL
NO_CHARGES


@<TRIPOS>ATOM
   1 C1             0.2046     0.1209    -0.1610 C.ar    
   2 C2             0.6664    -1.1870    -0.3435 C.ar    
   3 C3            -0.1787    -2.1669    -0.8107 C.ar    
   4 C4            -1.5066    -1.8676    -1.1076 C.ar    
   5 C5            -1.9728    -0.5555    -0.9248 C.ar    
   6 C6            -1.1246     0.4332    -0.4495 C.ar    
   7 N7            -2.5423    -2.6559    -1.5820 N.am    
   8 C8            -3.6743    -1.9470    -1.7272 C.2     
   9 C9            -3.3992    -0.5620    -1.3217 C.2     
  10 C10           -4.2790     0.5018    -1.3130 C.2     
  11 C11           -5.6522     0.2843    -1.5592 C.2     
  12 N12           -6.3921    -0.7970    -1.1274 N.pl3   
  13 C13           -7.6604    -0.6629    -1.5498 C.2     
  14 C14           -7.7669     0.5146    -2.2675 C.2     
  15 C15           -6.4918     1.1197    -2.2693 C.2     
  16 C16           -6.1167     2.4227    -2.9269 C.3     
  17 C17           -8.9859     1.0417    -2.9073 C.2     
  18 O18           -8.9674     1.3610    -4.0806 O.2     
  19 N19          -10.1210     1.1697    -2.1919 N.am    
  20 C20          -11.3602     1.5865    -2.8527 C.3     
  21 C21          -10.1155     0.8920    -0.7535 C.3     
  22 O22           -4.7420    -2.3773    -2.1254 O.2     
  23 C23            1.1187     1.1658     0.3408 C.2     
  24 O24            0.7153     2.3018     0.4986 O.2     
  25 N25            2.4006     0.8605     0.6240 N.am    
  26 C26            3.3077     1.8975     1.1219 C.3     
  27 C27            2.7375     2.4993     2.4079 C.3     
  28 C28            4.6571     1.2899     1.4069 C.ar    
  29 C29            3.4554     2.9956     0.0668 C.3     
  30 C30            5.1233     0.2464     0.6294 C.ar    
  31 C31            6.3610    -0.3110     0.8908 C.ar    
  32 C32            7.1327     0.1755     1.9294 C.ar    
  33 C33            6.6668     1.2197     2.7063 C.ar    
  34 C34            5.4310     1.7799     2.4422 C.ar    
  35 C35           -9.7907     2.1759     0.0126 C.3     
  36 C36          -12.1718     0.3492    -3.2418 C.3     
  37 H37            1.6941    -1.4291    -0.1162 H       
  38 H38            0.1891    -3.1729    -0.9483 H       
  39 H39           -1.4884     1.4405    -0.3105 H       
  40 H40           -2.4604    -3.6010    -1.7844 H       
  41 H41           -3.9169     1.5004    -1.1180 H       
  42 H42           -6.0504    -1.5375    -0.6022 H       
  43 H43           -8.4638    -1.3594    -1.3604 H       
  44 H44           -6.2642     3.2410    -2.2221 H       
  45 H45           -5.0703     2.3886    -3.2302 H       
  46 H46           -6.7442     2.5809    -3.8040 H       
  47 H47          -11.9448     2.2051    -2.1718 H       
  48 H48          -11.1195     2.1595    -3.7482 H       
  49 H49          -11.0965     0.5263    -0.4503 H       
  50 H50           -9.3617     0.1363    -0.5322 H       
  51 H51            2.7225    -0.0458     0.4980 H       
  52 H52            2.6323     1.7170     3.1596 H       
  53 H53            3.4125     3.2708     2.7784 H       
  54 H54            1.7616     2.9387     2.2018 H       
  55 H55            2.4794     3.4350    -0.1393 H       
  56 H56            4.1303     3.7671     0.4373 H       
  57 H57            3.8616     2.5669    -0.8494 H       
  58 H58            4.5204    -0.1337    -0.1821 H       
  59 H59            6.7250    -1.1267     0.2838 H       
  60 H60            8.0994    -0.2604     2.1341 H       
  61 H61            7.2695     1.5995     3.5180 H       
  62 H62            5.0670     2.5957     3.0492 H       
  63 H63           -9.7866     1.9693     1.0828 H       
  64 H64           -8.8096     2.5416    -0.2906 H       
  65 H65          -10.5444     2.9316    -0.2087 H       
  66 H66          -11.5873    -0.2694    -3.9228 H       
  67 H67          -12.4125    -0.2238    -2.3464 H       
  68 H68          -13.0939     0.6594    -3.7335 H       
@<TRIPOS>BOND
   1    1    2 ar
   2    1   23 1
   3    1    6 ar
   4    2    3 ar
   5    2   37 1
   6    3    4 ar
   7    3   38 1
   8    4    5 ar
   9    4    7 1
  10    5    6 ar
  11    5    9 1
  12    6   39 1
  13    7    8 am
  14    7   40 1
  15    8    9 1
  16    8   22 2
  17    9   10 2
  18   10   11 1
  19   10   41 1
  20   11   12 1
  21   11   15 2
  22   12   13 1
  23   12   42 1
  24   13   14 2
  25   13   43 1
  26   14   15 1
  27   14   17 1
  28   15   16 1
  29   16   44 1
  30   16   45 1
  31   16   46 1
  32   17   18 2
  33   17   19 am
  34   19   20 1
  35   19   21 1
  36   20   36 1
  37   20   47 1
  38   20   48 1
  39   21   35 1
  40   21   49 1
  41   21   50 1
  42   23   24 2
  43   23   25 am
  44   25   26 1
  45   25   51 1
  46   26   27 1
  47   26   28 1
  48   26   29 1
  49   27   52 1
  50   27   53 1
  51   27   54 1
  52   28   30 ar
  53   28   34 ar
  54   29   55 1
  55   29   56 1
  56   29   57 1
  57   30   31 ar
  58   30   58 1
  59   31   32 ar
  60   31   59 1
  61   32   33 ar
  62   32   60 1
  63   33   34 ar
  64   33   61 1
  65   34   62 1
  66   35   63 1
  67   35   64 1
  68   35   65 1
  69   36   66 1
  70   36   67 1
  71   36   68 1

#	End of record

