#	Name: ASD05940111
#	Creating user name:	WinNT
#	Creation time:	15. 06. 2019 21:04

#	Modifying user name:	WinNT
#	Modification time:	15. 06. 2019 21:04

#	Program:	/corina/corina34_cracker 3.40 0067  02.08.2006

@<TRIPOS>MOLECULE
ASD05940111
  57   59    0    0    0
SMALL
NO_CHARGES


@<TRIPOS>ATOM
   1 O1            -2.7333    -1.2618    -1.7663 O.3     
   2 C2            -1.4123    -1.7195    -1.4707 C.3     
   3 C3            -0.4613    -0.5229    -1.4023 C.3     
   4 N4            -0.4118     0.1388    -2.7129 N.3     
   5 C5             0.1865     1.4761    -2.6052 C.3     
   6 C6             0.3116    -0.6843    -3.6912 C.3     
   7 C7             0.1336    -0.0999    -5.0688 C.2     
   8 C8             0.9610     0.8532    -5.6716 C.2     
   9 C9             2.1878     1.4747    -5.0554 C.3     
  10 C10           -0.8515    -0.4089    -5.9435 C.2     
  11 N11           -0.6579     0.3271    -7.0579 N.pl3   
  12 N12            0.4862     1.1116    -6.8631 N.2     
  13 C13           -1.9649    -1.3983    -5.7145 C.3     
  14 C14           -1.3407    -1.9410    -9.3512 C.ar    
  15 C15           -0.8948    -0.6353    -9.2730 C.ar    
  16 C16           -1.4942     0.3064    -8.2606 C.3     
  17 C17           -0.7906    -2.8052   -10.2798 C.ar    
  18 C18            0.2059    -2.3640   -11.1299 C.ar    
  19 C19            0.6524    -1.0580   -11.0530 C.ar    
  20 C20            0.1024    -0.1929   -10.1242 C.ar    
  21 C21           -1.4139    -2.4472    -0.1249 C.3     
  22 O22           -2.2103    -3.6296    -0.2237 O.3     
  23 C23           -2.3170    -4.3969     0.8932 C.ar    
  24 C24           -3.0747    -5.5586     0.8679 C.ar    
  25 C25           -3.1814    -6.3374     2.0039 C.ar    
  26 C26           -2.5333    -5.9593     3.1664 C.ar    
  27 C27           -1.7771    -4.8009     3.1936 C.ar    
  28 C28           -1.6636    -4.0222     2.0581 C.ar    
  29 Cl29           0.6627     1.4473   -10.0269 Cl      
  30 Cl30          -2.6695    -6.9393     4.5929 Cl      
  31 H31           -3.0930    -0.6486    -1.1108 H       
  32 H32           -1.0809    -2.4026    -2.2528 H       
  33 H33           -0.8186     0.1828    -0.6523 H       
  34 H34            0.5368    -0.8670    -1.1311 H       
  35 H35            1.2329     1.3837    -2.3144 H       
  36 H36            0.1204     1.9823    -3.5683 H       
  37 H37           -0.3499     2.0546    -1.8531 H       
  38 H38            1.3717    -0.7018    -3.4382 H       
  39 H39           -0.0829    -1.7003    -3.6738 H       
  40 H40            3.0626     0.8726    -5.3012 H       
  41 H41            2.3195     2.4835    -5.4466 H       
  42 H42            2.0687     1.5175    -3.9728 H       
  43 H43           -2.8401    -0.8771    -5.3265 H       
  44 H44           -2.2192    -1.8837    -6.6568 H       
  45 H45           -1.6408    -2.1498    -4.9946 H       
  46 H46           -2.1159    -2.2877    -8.6840 H       
  47 H47           -2.4973    -0.0310    -7.9998 H       
  48 H48           -1.5468     1.3094    -8.6839 H       
  49 H49           -1.1394    -3.8256   -10.3405 H       
  50 H50            0.6358    -3.0398   -11.8545 H       
  51 H51            1.4313    -0.7135   -11.7171 H       
  52 H52           -0.3926    -2.7184     0.1427 H       
  53 H53           -1.8287    -1.7927     0.6416 H       
  54 H54           -3.5810    -5.8539    -0.0392 H       
  55 H55           -3.7715    -7.2417     1.9847 H       
  56 H56           -1.2719    -4.5074     4.1019 H       
  57 H57           -1.0733    -3.1181     2.0797 H       
@<TRIPOS>BOND
   1    1    2 1
   2    1   31 1
   3    2    3 1
   4    2   21 1
   5    2   32 1
   6    3    4 1
   7    3   33 1
   8    3   34 1
   9    4    5 1
  10    4    6 1
  11    5   35 1
  12    5   36 1
  13    5   37 1
  14    6    7 1
  15    6   38 1
  16    6   39 1
  17    7    8 1
  18    7   10 2
  19    8    9 1
  20    8   12 2
  21    9   40 1
  22    9   41 1
  23    9   42 1
  24   10   11 1
  25   10   13 1
  26   11   12 1
  27   11   16 1
  28   13   43 1
  29   13   44 1
  30   13   45 1
  31   14   15 ar
  32   14   17 ar
  33   14   46 1
  34   15   16 1
  35   15   20 ar
  36   16   47 1
  37   16   48 1
  38   17   18 ar
  39   17   49 1
  40   18   19 ar
  41   18   50 1
  42   19   20 ar
  43   19   51 1
  44   20   29 1
  45   21   22 1
  46   21   52 1
  47   21   53 1
  48   22   23 1
  49   23   24 ar
  50   23   28 ar
  51   24   25 ar
  52   24   54 1
  53   25   26 ar
  54   25   55 1
  55   26   27 ar
  56   26   30 1
  57   27   28 ar
  58   27   56 1
  59   28   57 1

#	End of record

