#	Name: ASD02562055
#	Creating user name:	WinNT
#	Creation time:	15. 06. 2019 20:25

#	Modifying user name:	WinNT
#	Modification time:	15. 06. 2019 20:25

#	Program:	/corina/corina34_cracker 3.40 0067  02.08.2006

@<TRIPOS>MOLECULE
ASD02562055
  44   47    0    0    0
SMALL
NO_CHARGES


@<TRIPOS>ATOM
   1 C1             0.1553     1.3721     1.2135 C.2     
   2 C2             0.1700    -0.0332     1.1610 C.2     
   3 C3             1.2941    -0.6901     0.8112 C.2     
   4 N4             2.4361    -0.0012     0.5019 N.pl3   
   5 C5             2.4517     1.3743     0.5441 C.2     
   6 C6             1.2807     2.0715     0.9094 C.2     
   7 C7             3.6847    -0.4109     0.1238 C.2     
   8 C8             4.4405     0.7282    -0.0580 C.2     
   9 N9             3.6605     1.7923     0.2057 N.2     
  10 N10            4.1124    -1.7289    -0.0450 N.3     
  11 C11            5.8630     0.7724    -0.4706 C.ar    
  12 C12            2.9891    -2.6671     0.0815 C.3     
  13 C13            3.3292    -3.9707    -0.6438 C.3     
  14 C14            2.1593    -4.9478    -0.5121 C.3     
  15 C15            1.9026    -5.2395     0.9678 C.3     
  16 C16            1.5624    -3.9360     1.6930 C.3     
  17 C17            2.7324    -2.9588     1.5613 C.3     
  18 C18            6.5137     2.0017    -0.6188 C.ar    
  19 C19            7.8435     2.0336    -1.0044 C.ar    
  20 C20            8.5245     0.8539    -1.2418 C.ar    
  21 C21            7.8839    -0.3639    -1.0962 C.ar    
  22 C22            6.5604    -0.4109    -0.7074 C.ar    
  23 O23            5.8434     3.1606    -0.3856 O.3     
  24 H24           -0.7486     1.8942     1.4903 H       
  25 H25           -0.7238    -0.5891     1.4025 H       
  26 H26            1.2938    -1.7694     0.7750 H       
  27 H27            1.2784     3.1508     0.9472 H       
  28 H28            4.5833    -1.8458    -0.9297 H       
  29 H29            2.0962    -2.2268    -0.3623 H       
  30 H30            3.5121    -3.7629    -1.6980 H       
  31 H31            4.2222    -4.4110    -0.2000 H       
  32 H32            1.2664    -4.5075    -0.9558 H       
  33 H33            2.4017    -5.8765    -1.0287 H       
  34 H34            1.0691    -5.9357     1.0616 H       
  35 H35            2.7955    -5.6799     1.4115 H       
  36 H36            0.6695    -3.4956     1.2492 H       
  37 H37            1.3795    -4.1438     2.7473 H       
  38 H38            3.6253    -3.3992     2.0051 H       
  39 H39            2.4900    -2.0301     2.0780 H       
  40 H40            8.3490     2.9809    -1.1201 H       
  41 H41            9.5614     0.8832    -1.5427 H       
  42 H42            8.4226    -1.2810    -1.2835 H       
  43 H43            6.0635    -1.3631    -0.5947 H       
  44 H44            5.8956     3.4679     0.5298 H       
@<TRIPOS>BOND
   1    1    2 1
   2    1    6 2
   3    1   24 1
   4    2    3 2
   5    2   25 1
   6    3    4 1
   7    3   26 1
   8    4    5 1
   9    4    7 1
  10    5    6 1
  11    5    9 2
  12    6   27 1
  13    7    8 2
  14    7   10 1
  15    8    9 1
  16    8   11 1
  17   10   12 1
  18   10   28 1
  19   11   18 ar
  20   11   22 ar
  21   12   13 1
  22   12   17 1
  23   12   29 1
  24   13   14 1
  25   13   30 1
  26   13   31 1
  27   14   15 1
  28   14   32 1
  29   14   33 1
  30   15   16 1
  31   15   34 1
  32   15   35 1
  33   16   17 1
  34   16   36 1
  35   16   37 1
  36   17   38 1
  37   17   39 1
  38   18   19 ar
  39   18   23 1
  40   19   20 ar
  41   19   40 1
  42   20   21 ar
  43   20   41 1
  44   21   22 ar
  45   21   42 1
  46   22   43 1
  47   23   44 1

#	End of record

