#	Name: ASD01910476
#	Creating user name:	WinNT
#	Creation time:	15. 06. 2019 19:55

#	Modifying user name:	WinNT
#	Modification time:	15. 06. 2019 19:55

#	Program:	/corina/corina34_cracker 3.40 0067  02.08.2006

@<TRIPOS>MOLECULE
ASD01910476
  46   49    0    0    0
SMALL
NO_CHARGES


@<TRIPOS>ATOM
   1 C1             0.0312     1.4761     0.0437 C.ar    
   2 C2             0.0373    -0.0087     0.0230 C.2     
   3 N3            -1.0474    -0.8158     0.0318 N.2     
   4 C4            -0.5767    -2.0378     0.0063 C.2     
   5 O5             0.7566    -1.9454    -0.0169 O.3     
   6 N6             1.0922    -0.7798    -0.0126 N.2     
   7 C7            -1.3861    -3.3090     0.0040 C.3     
   8 C8            -1.0755    -4.1101    -1.2625 C.3     
   9 C9            -1.9213    -5.3853    -1.2818 C.3     
  10 C10           -1.5668    -6.2468    -0.0656 C.3     
  11 N11           -1.7243    -5.4366     1.1499 N.am    
  12 C12           -1.0256    -4.1469     1.2347 C.3     
  13 C13           -2.4951    -5.8683     2.1678 C.2     
  14 C14           -3.2652    -7.1215     2.0312 C.ar    
  15 O15           -2.5565    -5.2263     3.1983 O.2     
  16 C16           -4.6466    -7.1207     2.2348 C.ar    
  17 C17           -5.3605    -8.2929     2.1056 C.ar    
  18 C18           -4.7092    -9.4712     1.7746 C.ar    
  19 C19           -3.3374    -9.4777     1.5718 C.ar    
  20 C20           -2.6150    -8.3102     1.6923 C.ar    
  21 F21           -5.4135   -10.6173     1.6497 F       
  22 C22            1.2268     2.1987     0.0318 C.ar    
  23 C23            1.1759     3.5780     0.0513 C.ar    
  24 N24            0.0200     4.2124     0.0812 N.ar    
  25 C25           -1.1307     3.5680     0.0933 C.ar    
  26 C26           -1.1703     2.1883     0.0696 C.ar    
  27 C27           -5.3557    -5.8408     2.5956 C.3     
  28 H28           -2.4480    -3.0642     0.0283 H       
  29 H29           -1.3081    -3.5067    -2.1400 H       
  30 H30           -0.0183    -4.3753    -1.2742 H       
  31 H31           -2.9782    -5.1215    -1.2451 H       
  32 H32           -1.7167    -5.9438    -2.1952 H       
  33 H33           -2.2344    -7.1073    -0.0203 H       
  34 H34           -0.5344    -6.5867    -0.1470 H       
  35 H35            0.0510    -4.3155     1.2593 H       
  36 H36           -1.3361    -3.6218     2.1380 H       
  37 H37           -6.4290    -8.2934     2.2628 H       
  38 H38           -2.8349   -10.3984     1.3148 H       
  39 H39           -1.5467    -8.3163     1.5338 H       
  40 H40            2.1769     1.6857     0.0080 H       
  41 H41            2.0949     4.1452     0.0423 H       
  42 H42           -2.0543     4.1273     0.1183 H       
  43 H43           -2.1162     1.6671     0.0794 H       
  44 H44           -5.5929    -5.2882     1.6865 H       
  45 H45           -6.2767    -6.0739     3.1299 H       
  46 H46           -4.7103    -5.2346     3.2313 H       
@<TRIPOS>BOND
   1    1    2 1
   2    1   22 ar
   3    1   26 ar
   4    2    3 1
   5    2    6 2
   6    3    4 2
   7    4    5 1
   8    4    7 1
   9    5    6 1
  10    7    8 1
  11    7   12 1
  12    7   28 1
  13    8    9 1
  14    8   29 1
  15    8   30 1
  16    9   10 1
  17    9   31 1
  18    9   32 1
  19   10   11 1
  20   10   33 1
  21   10   34 1
  22   11   12 1
  23   11   13 am
  24   12   35 1
  25   12   36 1
  26   13   14 1
  27   13   15 2
  28   14   16 ar
  29   14   20 ar
  30   16   17 ar
  31   16   27 1
  32   17   18 ar
  33   17   37 1
  34   18   19 ar
  35   18   21 1
  36   19   20 ar
  37   19   38 1
  38   20   39 1
  39   22   23 ar
  40   22   40 1
  41   23   24 ar
  42   23   41 1
  43   24   25 ar
  44   25   26 ar
  45   25   42 1
  46   26   43 1
  47   27   44 1
  48   27   45 1
  49   27   46 1

#	End of record

