#	Name: ASD08150391
#	Creating user name:	WinNT
#	Creation time:	15. 06. 2019 21:15

#	Modifying user name:	WinNT
#	Modification time:	15. 06. 2019 21:15

#	Program:	/corina/corina34_cracker 3.40 0067  02.08.2006

@<TRIPOS>MOLECULE
ASD08150391
  43   47    0    0    0
SMALL
NO_CHARGES


@<TRIPOS>ATOM
   1 N1            -0.0626     1.2632    -0.1763 N.am    
   2 C2            -0.0024    -0.0143     0.2470 C.2     
   3 C3             1.2178    -0.7202     0.2462 C.2     
   4 C4             2.3555    -0.1173    -0.1837 C.2     
   5 C5             2.2959     1.2266    -0.6297 C.ar    
   6 C6             3.4462     1.8985    -1.0860 C.ar    
   7 N7             3.3882     3.1381    -1.4974 N.ar    
   8 C8             2.2431     3.8373    -1.5096 C.ar    
   9 C9             1.0364     3.2410    -1.0679 C.ar    
  10 C10            1.0651     1.9007    -0.6165 C.ar    
  11 C11           -0.1515     3.9786    -1.0838 C.ar    
  12 C12           -0.1348     5.2890    -1.5330 C.ar    
  13 C13            1.0631     5.8722    -1.9690 C.ar    
  14 C14            2.2264     5.1677    -1.9595 C.ar    
  15 O15           -1.0168    -0.5673     0.6364 O.2     
  16 C16           -1.5379     7.1539    -0.7251 C.2     
  17 C17           -1.3906     6.0787    -1.5532 C.2     
  18 C18           -2.4387     5.7218    -2.4294 C.2     
  19 C19           -3.5823     6.4610    -2.4314 C.2     
  20 C20           -3.6954     7.5614    -1.5632 C.2     
  21 N21           -2.6818     7.8817    -0.7376 N.am    
  22 O22           -4.7169     8.2292    -1.5587 O.2     
  23 C23           -1.2880     1.9410    -0.1712 C.ar    
  24 C24           -2.1136     1.8933    -1.2871 C.ar    
  25 C25           -3.3225     2.5624    -1.2796 C.ar    
  26 C26           -3.7108     3.2806    -0.1594 C.ar    
  27 C27           -2.8887     3.3287     0.9534 C.ar    
  28 C28           -1.6818     2.6567     0.9515 C.ar    
  29 F29           -4.8929     3.9347    -0.1537 F       
  30 Cl30          -4.3551     2.5041    -2.6739 Cl      
  31 H31            1.2477    -1.7439     0.5890 H       
  32 H32            3.2928    -0.6540    -0.1854 H       
  33 H33            4.3937     1.3803    -1.0961 H       
  34 H34           -1.0751     3.5300    -0.7488 H       
  35 H35            1.0621     6.8945    -2.3171 H       
  36 H36            3.1402     5.6329    -2.2986 H       
  37 H37           -0.7382     7.4246    -0.0515 H       
  38 H38           -2.3346     4.8736    -3.0898 H       
  39 H39           -4.3954     6.2045    -3.0944 H       
  40 H40           -2.7713     8.6427    -0.1428 H       
  41 H41           -1.8108     1.3340    -2.1599 H       
  42 H42           -3.1929     3.8891     1.8251 H       
  43 H43           -1.0430     2.6912     1.8217 H       
@<TRIPOS>BOND
   1    1    2 am
   2    1   10 1
   3    1   23 1
   4    2    3 1
   5    2   15 2
   6    3    4 2
   7    3   31 1
   8    4    5 1
   9    4   32 1
  10    5    6 ar
  11    5   10 ar
  12    6    7 ar
  13    6   33 1
  14    7    8 ar
  15    8    9 ar
  16    8   14 ar
  17    9   10 ar
  18    9   11 ar
  19   11   12 ar
  20   11   34 1
  21   12   13 ar
  22   12   17 1
  23   13   14 ar
  24   13   35 1
  25   14   36 1
  26   16   17 2
  27   16   21 1
  28   16   37 1
  29   17   18 1
  30   18   19 2
  31   18   38 1
  32   19   20 1
  33   19   39 1
  34   20   21 am
  35   20   22 2
  36   21   40 1
  37   23   24 ar
  38   23   28 ar
  39   24   25 ar
  40   24   41 1
  41   25   26 ar
  42   25   30 1
  43   26   27 ar
  44   26   29 1
  45   27   28 ar
  46   27   42 1
  47   28   43 1

#	End of record

