#	Name: ASD03330319
#	Creating user name:	WinNT
#	Creation time:	15. 06. 2019 20:37

#	Modifying user name:	WinNT
#	Modification time:	15. 06. 2019 20:37

#	Program:	/corina/corina34_cracker 3.40 0067  02.08.2006

@<TRIPOS>MOLECULE
ASD03330319
  70   73    0    0    0
SMALL
NO_CHARGES


@<TRIPOS>ATOM
   1 C1            -0.2166     0.2247     0.7690 C.3     
   2 N2            -0.2935    -1.1833     0.3508 N.am    
   3 C3             0.3394    -1.5619    -0.9271 C.3     
   4 C4             1.6737    -0.8592    -0.9821 C.2     
   5 N5             2.0591     0.1101    -0.1146 N.pl3   
   6 C6             1.2500     0.6044     1.0019 C.3     
   7 C7             2.6912    -1.0474    -1.8605 C.2     
   8 N8             3.6829    -0.1906    -1.5276 N.2     
   9 C9             3.3094     0.5093    -0.4810 C.2     
  10 C10            4.1118     1.5569     0.1881 C.ar    
  11 C11            5.2299     2.0963    -0.4485 C.ar    
  12 C12            2.7118    -2.0116    -2.9748 C.2     
  13 O13            1.7527    -2.7327    -3.1727 O.2     
  14 C14            3.8141    -3.0527    -4.8822 C.3     
  15 N15            3.7936    -2.0942    -3.7745 N.am    
  16 S16           -1.0666    -2.3099     1.2864 S.o2    
  17 C17            5.9739     3.0733     0.1806 C.ar    
  18 C18            5.6130     3.5182     1.4399 C.ar    
  19 C19            4.5054     2.9873     2.0764 C.ar    
  20 C20            3.7501     2.0136     1.4558 C.ar    
  21 O21           -1.0619    -1.8011     2.6131 O.2     
  22 C22           -2.7519    -2.3462     0.7733 C.ar    
  23 O23           -0.5132    -3.5708     0.9356 O.2     
  24 C24           -3.1501    -3.2080    -0.2314 C.ar    
  25 C25           -4.4722    -3.2364    -0.6340 C.ar    
  26 C26           -4.9989    -1.5449     0.9766 C.ar    
  27 C27           -3.6769    -1.5168     1.3794 C.ar    
  28 C28           -5.3962    -2.4033    -0.0314 C.ar    
  29 C29           -6.8375    -2.4339    -0.4706 C.3     
  30 C30            5.2411    -3.4012    -5.2186 C.2     
  31 O31            6.1431    -2.6721    -4.8640 O.2     
  32 C32            3.1385    -2.4318    -6.1065 C.3     
  33 C33            3.8911    -1.1643    -6.5163 C.3     
  34 C34            3.1586    -3.4333    -7.2629 C.3     
  35 C35            1.6901    -2.0767    -5.7645 C.3     
  36 N36            5.5150    -4.5230    -5.9137 N.am    
  37 C37            6.8925    -4.8173    -6.3162 C.3     
  38 F38           -7.5375    -3.3749     0.2921 F       
  39 F39           -7.4074    -1.1692    -0.2887 F       
  40 F40           -6.9056    -2.7859    -1.8229 F       
  41 H41           -0.6374     0.8594    -0.0109 H       
  42 H42           -0.7790     0.3611     1.6927 H       
  43 H43            0.4855    -2.6414    -0.9645 H       
  44 H44           -0.2849    -1.2409    -1.7610 H       
  45 H45            1.3398     1.6888     1.0646 H       
  46 H46            1.5992     0.1550     1.9316 H       
  47 H47            5.5128     1.7495    -1.4314 H       
  48 H48            3.2785    -3.9562    -4.5908 H       
  49 H49            4.5585    -1.5190    -3.6166 H       
  50 H50            6.8398     3.4914    -0.3110 H       
  51 H51            6.1988     4.2829     1.9283 H       
  52 H52            4.2288     3.3388     3.0595 H       
  53 H53            2.8856     1.5999     1.9537 H       
  54 H54           -2.4282    -3.8589    -0.7022 H       
  55 H55           -4.7832    -3.9092    -1.4194 H       
  56 H56           -5.7216    -0.8969     1.4502 H       
  57 H57           -3.3664    -0.8459     2.1668 H       
  58 H58            4.9230    -1.4173    -6.7600 H       
  59 H59            3.4098    -0.7220    -7.3886 H       
  60 H60            3.8768    -0.4508    -5.6925 H       
  61 H61            2.6096    -4.3303    -6.9763 H       
  62 H62            2.6906    -2.9855    -8.1396 H       
  63 H63            4.1899    -3.6977    -7.4967 H       
  64 H64            1.6757    -1.3632    -4.9406 H       
  65 H65            1.2088    -1.6343    -6.6367 H       
  66 H66            1.1538    -2.9796    -5.4725 H       
  67 H67            4.8000    -5.1354    -6.1474 H       
  68 H68            6.9174    -5.7588    -6.8649 H       
  69 H69            7.2640    -4.0152    -6.9539 H       
  70 H70            7.5210    -4.8970    -5.4292 H       
@<TRIPOS>BOND
   1    1    2 1
   2    1    6 1
   3    1   41 1
   4    1   42 1
   5    2    3 1
   6    2   16 am
   7    3    4 1
   8    3   43 1
   9    3   44 1
  10    4    5 1
  11    4    7 2
  12    5    6 1
  13    5    9 1
  14    6   45 1
  15    6   46 1
  16    7    8 1
  17    7   12 1
  18    8    9 2
  19    9   10 1
  20   10   11 ar
  21   10   20 ar
  22   11   17 ar
  23   11   47 1
  24   12   13 2
  25   12   15 am
  26   14   15 1
  27   14   30 1
  28   14   32 1
  29   14   48 1
  30   15   49 1
  31   16   21 2
  32   16   22 1
  33   16   23 2
  34   17   18 ar
  35   17   50 1
  36   18   19 ar
  37   18   51 1
  38   19   20 ar
  39   19   52 1
  40   20   53 1
  41   22   24 ar
  42   22   27 ar
  43   24   25 ar
  44   24   54 1
  45   25   28 ar
  46   25   55 1
  47   26   27 ar
  48   26   28 ar
  49   26   56 1
  50   27   57 1
  51   28   29 1
  52   29   38 1
  53   29   39 1
  54   29   40 1
  55   30   31 2
  56   30   36 am
  57   32   33 1
  58   32   34 1
  59   32   35 1
  60   33   58 1
  61   33   59 1
  62   33   60 1
  63   34   61 1
  64   34   62 1
  65   34   63 1
  66   35   64 1
  67   35   65 1
  68   35   66 1
  69   36   37 1
  70   36   67 1
  71   37   68 1
  72   37   69 1
  73   37   70 1

#	End of record

