#	Name: ASD01884281
#	Creating user name:	WinNT
#	Creation time:	15. 06. 2019 19:47

#	Modifying user name:	WinNT
#	Modification time:	15. 06. 2019 19:47

#	Program:	/corina/corina34_cracker 3.40 0067  02.08.2006

@<TRIPOS>MOLECULE
ASD01884281
  40   43    0    0    0
SMALL
NO_CHARGES


@<TRIPOS>ATOM
   1 C1            -0.1024     1.5592    -0.0888 C.ar    
   2 C2            -0.3134     0.2093     0.1599 C.ar    
   3 C3            -1.5733    -0.3339     0.0698 C.ar    
   4 C4            -2.6763     0.4617    -0.2749 C.ar    
   5 C5            -2.4457     1.8160    -0.5209 C.ar    
   6 C6            -1.1797     2.3641    -0.4253 C.ar    
   7 N7            -3.9989     0.0724    -0.4073 N.am    
   8 C8            -4.9062     0.9931    -0.7466 C.2     
   9 S9            -4.0198     2.5167    -0.9220 S.3     
  10 O10           -6.1007     0.8196    -0.9043 O.2     
  11 C11           -4.3949    -1.3197    -0.1807 C.3     
  12 C12           -4.7581    -1.5132     1.2930 C.3     
  13 C13           -5.3123    -2.8766     1.7109 C.3     
  14 C14           -3.8930    -2.4716     2.1138 C.3     
  15 F15           -2.8304    -3.1041     1.4595 F       
  16 F16           -3.6697    -2.1507     3.4571 F       
  17 O17            1.1472     2.0871     0.0023 O.3     
  18 C18            1.4406     2.8421     1.0868 C.ar    
  19 N19            0.5596     2.9568     2.0661 N.ar    
  20 C20            2.6831     3.4958     1.1687 C.ar    
  21 C21            2.9634     4.2723     2.3027 C.ar    
  22 C22            2.0014     4.3598     3.2919 C.ar    
  23 C23            0.8042     3.6819     3.1403 C.ar    
  24 C24            3.6681     3.3676     0.0882 C.2     
  25 O25            3.4140     2.6928    -0.8872 O.2     
  26 C26            4.9952     4.0742     0.1907 C.3     
  27 H27            0.5218    -0.4212     0.4269 H       
  28 H28           -1.7156    -1.3863     0.2666 H       
  29 H29           -1.0293     3.4156    -0.6207 H       
  30 H30           -5.2584    -1.5576    -0.8019 H       
  31 H31           -3.5674    -1.9798    -0.4406 H       
  32 H32           -5.1535    -0.6325     1.7992 H       
  33 H33           -6.0721    -2.8931     2.4923 H       
  34 H34           -5.4182    -3.6359     0.9359 H       
  35 H35            3.9069     4.7886     2.4008 H       
  36 H36            2.1844     4.9491     4.1783 H       
  37 H37            0.0541     3.7520     3.9142 H       
  38 H38            5.7178     3.4212     0.6801 H       
  39 H39            5.3511     4.3256    -0.8085 H       
  40 H40            4.8767     4.9871     0.7744 H       
@<TRIPOS>BOND
   1    1    2 ar
   2    1   17 1
   3    1    6 ar
   4    2    3 ar
   5    2   27 1
   6    3    4 ar
   7    3   28 1
   8    4    5 ar
   9    4    7 1
  10    5    6 ar
  11    5    9 1
  12    6   29 1
  13    7    8 am
  14    7   11 1
  15    8    9 1
  16    8   10 2
  17   11   12 1
  18   11   30 1
  19   11   31 1
  20   12   13 1
  21   12   14 1
  22   12   32 1
  23   13   14 1
  24   13   33 1
  25   13   34 1
  26   14   15 1
  27   14   16 1
  28   17   18 1
  29   18   19 ar
  30   18   20 ar
  31   19   23 ar
  32   20   21 ar
  33   20   24 1
  34   21   22 ar
  35   21   35 1
  36   22   23 ar
  37   22   36 1
  38   23   37 1
  39   24   25 2
  40   24   26 1
  41   26   38 1
  42   26   39 1
  43   26   40 1

#	End of record

