#	Name: ASD03331630
#	Creating user name:	WinNT
#	Creation time:	15. 06. 2019 20:39

#	Modifying user name:	WinNT
#	Modification time:	15. 06. 2019 20:39

#	Program:	/corina/corina34_cracker 3.40 0067  02.08.2006

@<TRIPOS>MOLECULE
ASD03331630
  54   58    0    0    0
SMALL
NO_CHARGES


@<TRIPOS>ATOM
   1 C1             0.3126     1.7336     1.6237 C.ar    
   2 C2             0.4152     0.4738     2.1427 C.ar    
   3 C3             1.4146    -0.3873     1.7112 C.ar    
   4 C4             2.3213     0.0115     0.7529 C.ar    
   5 C5             2.2368     1.2891     0.2101 C.ar    
   6 C6             1.2209     2.1592     0.6506 C.ar    
   7 N7             2.9746     1.9633    -0.7378 N.pl3   
   8 C8             2.4629     3.2283    -0.9134 C.2     
   9 C9             1.3955     3.4041    -0.0958 C.2     
  10 C10            2.9959     4.2414    -1.8498 C.ar    
  11 C11            0.5505     4.6464     0.0215 C.3     
  12 C12           -0.2405     4.8374    -1.2469 C.ar    
  13 C13           -0.4093     4.5005     1.2041 C.3     
  14 C14           -0.1517     6.0305    -1.9412 C.ar    
  15 C15           -0.8740     6.2109    -3.1034 C.ar    
  16 C16           -1.6937     5.1885    -3.5770 C.ar    
  17 C17           -1.7793     3.9887    -2.8735 C.ar    
  18 C18           -1.0483     3.8171    -1.7155 C.ar    
  19 C19            3.3367     3.8797    -3.1538 C.ar    
  20 C20            3.8335     4.8295    -4.0224 C.ar    
  21 C21            3.9943     6.1381    -3.6030 C.ar    
  22 C22            3.6588     6.5031    -2.3113 C.ar    
  23 C23            3.1548     5.5642    -1.4349 C.ar    
  24 N24            0.3536     4.4975     2.4547 N.pl3   
  25 O25           -0.0261     5.1635     3.4012 O.2     
  26 O26            1.3675     3.8291     2.5480 O.2     
  27 C27           -2.4729     5.3768    -4.8257 C.ar    
  28 C28           -3.2926     4.3544    -5.2993 C.ar    
  29 C29           -4.0152     4.5349    -6.4613 C.ar    
  30 C30           -3.9263     5.7279    -7.1556 C.ar    
  31 C31           -3.1138     6.7460    -6.6903 C.ar    
  32 C32           -2.3920     6.5788    -5.5258 C.ar    
  33 H33           -0.4704     2.3965     1.9611 H       
  34 H34           -0.2868     0.1456     2.8949 H       
  35 H35            1.4826    -1.3800     2.1310 H       
  36 H36            3.0956    -0.6662     0.4247 H       
  37 H37            3.7400     1.6006    -1.2105 H       
  38 H38            1.1952     5.5106     0.1813 H       
  39 H39           -1.1104     5.3351     1.2081 H       
  40 H40           -0.9597     3.5641     1.1119 H       
  41 H41            0.4837     6.8224    -1.5730 H       
  42 H42           -0.8042     7.1429    -3.6446 H       
  43 H43           -2.4132     3.1930    -3.2362 H       
  44 H44           -1.1106     2.8860    -1.1718 H       
  45 H45            3.2123     2.8584    -3.4822 H       
  46 H46            4.0976     4.5509    -5.0319 H       
  47 H47            4.3839     6.8778    -4.2867 H       
  48 H48            3.7874     7.5261    -1.9898 H       
  49 H49            2.8886     5.8514    -0.4284 H       
  50 H50           -3.3622     3.4222    -4.7583 H       
  51 H51           -4.6509     3.7431    -6.8293 H       
  52 H52           -4.4932     5.8649    -8.0647 H       
  53 H53           -3.0479     7.6754    -7.2366 H       
  54 H54           -1.7619     7.3762    -5.1606 H       
@<TRIPOS>BOND
   1    1    2 ar
   2    1    6 ar
   3    1   33 1
   4    2    3 ar
   5    2   34 1
   6    3    4 ar
   7    3   35 1
   8    4    5 ar
   9    4   36 1
  10    5    7 1
  11    5    6 ar
  12    6    9 1
  13    7    8 1
  14    7   37 1
  15    8    9 2
  16    8   10 1
  17    9   11 1
  18   10   19 ar
  19   10   23 ar
  20   11   13 1
  21   11   12 1
  22   11   38 1
  23   12   14 ar
  24   12   18 ar
  25   13   24 1
  26   13   39 1
  27   13   40 1
  28   14   15 ar
  29   14   41 1
  30   15   16 ar
  31   15   42 1
  32   16   17 ar
  33   16   27 1
  34   17   18 ar
  35   17   43 1
  36   18   44 1
  37   19   20 ar
  38   19   45 1
  39   20   21 ar
  40   20   46 1
  41   21   22 ar
  42   21   47 1
  43   22   23 ar
  44   22   48 1
  45   23   49 1
  46   24   25 2
  47   24   26 2
  48   27   28 ar
  49   27   32 ar
  50   28   29 ar
  51   28   50 1
  52   29   30 ar
  53   29   51 1
  54   30   31 ar
  55   30   52 1
  56   31   32 ar
  57   31   53 1
  58   32   54 1

#	End of record

