#	Name: ASD01814305
#	Creating user name:	WinNT
#	Creation time:	15. 06. 2019 19:32

#	Modifying user name:	WinNT
#	Modification time:	15. 06. 2019 19:32

#	Program:	/corina/corina34_cracker 3.40 0067  02.08.2006

@<TRIPOS>MOLECULE
ASD01814305
  62   67    0    0    0
SMALL
NO_CHARGES


@<TRIPOS>ATOM
   1 C1            -0.0168     1.3869     0.0097 C.ar    
   2 C2             0.0021    -0.0041     0.0020 C.ar    
   3 C3             1.1801    -0.6897    -0.0129 C.ar    
   4 C4             2.3948     0.0129    -0.0207 C.ar    
   5 C5             2.3717     1.4290    -0.0129 C.ar    
   6 C6             1.1455     2.1015     0.0024 C.ar    
   7 C7             3.6293    -0.6694    -0.0365 C.ar    
   8 C8             4.8031     0.0063    -0.0446 C.ar    
   9 C9             4.8359     1.4095    -0.0374 C.ar    
  10 C10            3.6406     2.1511    -0.0211 C.ar    
  11 C11            6.1026     2.1526    -0.0470 C.2     
  12 N12            6.0328     3.5041    -0.0399 N.am    
  13 C13            4.8302     4.1313    -0.0241 C.2     
  14 N14            3.6961     3.4935    -0.0158 N.2     
  15 C15            3.6424    -2.1763    -0.0442 C.3     
  16 C16            3.5087    -2.6726    -1.4608 C.ar    
  17 C17            4.6412    -2.8886    -2.2251 C.ar    
  18 C18            4.5245    -3.3431    -3.5231 C.ar    
  19 C19            3.2630    -3.5848    -4.0631 C.ar    
  20 C20            2.1256    -3.3660    -3.2886 C.ar    
  21 C21            2.2541    -2.9159    -1.9901 C.ar    
  22 O22            7.1745     1.5748    -0.0604 O.2     
  23 C23            3.1313    -4.0731    -5.4582 C.ar    
  24 C24            7.2655     4.2957    -0.0490 C.3     
  25 C25            7.3178     5.1723     1.2039 C.3     
  26 C26            8.6052     5.9990     1.1945 C.3     
  27 C27            8.6317     6.8873    -0.0509 C.3     
  28 C28            8.5794     6.0107    -1.3038 C.3     
  29 C29            7.2920     5.1840    -1.2944 C.3     
  30 O30            7.2930     4.3426     2.3671 O.3     
  31 C31            1.8706    -4.3183    -6.0085 C.ar    
  32 C32            1.8013    -4.7730    -7.3144 C.ar    
  33 C33            2.9709    -4.9681    -8.0256 C.ar    
  34 N34            4.1472    -4.7279    -7.4791 N.ar    
  35 C35            4.2626    -4.2889    -6.2425 C.ar    
  36 H36           -0.9630     1.9076     0.0169 H       
  37 H37           -0.9305    -0.5488     0.0083 H       
  38 H38            1.1786    -1.7697    -0.0183 H       
  39 H39            1.1188     3.1811     0.0081 H       
  40 H40            5.7317    -0.5451    -0.0563 H       
  41 H41            4.8132     5.2111    -0.0182 H       
  42 H42            4.5813    -2.5336     0.3789 H       
  43 H43            2.8098    -2.5499     0.5518 H       
  44 H44            5.6185    -2.7009    -1.8055 H       
  45 H45            5.4094    -3.5107    -4.1192 H       
  46 H46            1.1454    -3.5514    -3.7024 H       
  47 H47            1.3732    -2.7463    -1.3888 H       
  48 H48            8.1264     3.6273    -0.0610 H       
  49 H49            6.4569     5.8406     1.2159 H       
  50 H50            8.6425     6.6235     2.0871 H       
  51 H51            9.4662     5.3306     1.1825 H       
  52 H52            7.7708     7.5557    -0.0389 H       
  53 H53            9.5489     7.4763    -0.0577 H       
  54 H54            8.5983     6.6436    -2.1911 H       
  55 H55            9.4403     5.3423    -1.3159 H       
  56 H56            7.2547     4.5595    -2.1870 H       
  57 H57            6.4311     5.8523    -1.2824 H       
  58 H58            7.3237     4.8324     3.2003 H       
  59 H59            0.9730    -4.1576    -5.4298 H       
  60 H60            0.8440    -4.9736    -7.7725 H       
  61 H61            2.9206    -5.3231    -9.0444 H       
  62 H62            5.2432    -4.1037    -5.8297 H       
@<TRIPOS>BOND
   1    1    2 ar
   2    1    6 ar
   3    1   36 1
   4    2    3 ar
   5    2   37 1
   6    3    4 ar
   7    3   38 1
   8    4    5 ar
   9    4    7 ar
  10    5    6 ar
  11    5   10 ar
  12    6   39 1
  13    7    8 ar
  14    7   15 1
  15    8    9 ar
  16    8   40 1
  17    9   10 ar
  18    9   11 1
  19   10   14 1
  20   11   12 am
  21   11   22 2
  22   12   13 1
  23   12   24 1
  24   13   14 2
  25   13   41 1
  26   15   16 1
  27   15   42 1
  28   15   43 1
  29   16   17 ar
  30   16   21 ar
  31   17   18 ar
  32   17   44 1
  33   18   19 ar
  34   18   45 1
  35   19   20 ar
  36   19   23 1
  37   20   21 ar
  38   20   46 1
  39   21   47 1
  40   23   31 ar
  41   23   35 ar
  42   24   25 1
  43   24   29 1
  44   24   48 1
  45   25   26 1
  46   25   30 1
  47   25   49 1
  48   26   27 1
  49   26   50 1
  50   26   51 1
  51   27   28 1
  52   27   52 1
  53   27   53 1
  54   28   29 1
  55   28   54 1
  56   28   55 1
  57   29   56 1
  58   29   57 1
  59   30   58 1
  60   31   32 ar
  61   31   59 1
  62   32   33 ar
  63   32   60 1
  64   33   34 ar
  65   33   61 1
  66   34   35 ar
  67   35   62 1

#	End of record

