#	Name: ASD01900629
#	Creating user name:	WinNT
#	Creation time:	15. 06. 2019 19:52

#	Modifying user name:	WinNT
#	Modification time:	15. 06. 2019 19:52

#	Program:	/corina/corina34_cracker 3.40 0067  02.08.2006

@<TRIPOS>MOLECULE
ASD01900629
  38   41    0    0    0
SMALL
NO_CHARGES


@<TRIPOS>ATOM
   1 C1            -0.0168     1.3852     0.0097 C.ar    
   2 C2             0.0021    -0.0041     0.0020 C.ar    
   3 C3            -1.1755    -0.7234     0.0114 C.ar    
   4 C4            -2.3957    -0.0607     0.0289 C.ar    
   5 C5            -2.4124     1.3407     0.0323 C.ar    
   6 O6            -3.5540    -0.7555     0.0500 O.3     
   7 C7            -4.7330    -0.1736    -0.2285 C.2     
   8 C8            -4.9015     1.1697    -0.2465 C.2     
   9 C9            -3.7318     2.0225     0.0375 C.2     
  10 N10           -3.8499     3.3054     0.2797 N.2     
  11 C11           -5.8937    -1.0358    -0.5280 C.ar    
  12 N12           -7.0725    -0.4721    -0.8068 N.ar    
  13 C13           -8.1436    -1.1735    -1.0819 C.ar    
  14 C14           -8.0870    -2.5783    -1.0928 C.ar    
  15 C15           -6.8522    -3.2169    -0.8018 C.ar    
  16 C16           -5.7360    -2.4129    -0.5196 C.ar    
  17 C17           -9.2137    -3.3626    -1.3820 C.ar    
  18 C18           -9.1063    -4.7208    -1.3793 C.ar    
  19 C19           -7.8945    -5.3466    -1.0933 C.ar    
  20 C20           -6.7790    -4.6183    -0.8086 C.ar    
  21 O21           -5.1292     3.9122     0.2737 O.3     
  22 C22           -1.2258     2.0615     0.0306 C.ar    
  23 O23            1.1514     2.0809     0.0022 O.3     
  24 C24            2.3602     1.3190    -0.0134 C.3     
  25 F25            2.3921     0.5186    -1.1603 F       
  26 F26            3.4580     2.1862    -0.0192 F       
  27 F27            2.4139     0.5063     1.1241 F       
  28 H28            0.9475    -0.5260    -0.0118 H       
  29 H29           -1.1482    -1.8031     0.0048 H       
  30 H30           -5.8660     1.6050    -0.4629 H       
  31 H31           -9.0742    -0.6709    -1.3009 H       
  32 H32           -4.7781    -2.8577    -0.2935 H       
  33 H33          -10.1603    -2.8928    -1.6051 H       
  34 H34           -9.9750    -5.3225    -1.6023 H       
  35 H35           -7.8388    -6.4252    -1.0980 H       
  36 H36           -5.8459    -5.1156    -0.5885 H       
  37 H37           -5.1157     4.8604     0.4627 H       
  38 H38           -1.2451     3.1413     0.0369 H       
@<TRIPOS>BOND
   1    1    2 ar
   2    1   23 1
   3    1   22 ar
   4    2    3 ar
   5    2   28 1
   6    3    4 ar
   7    3   29 1
   8    4    5 ar
   9    4    6 1
  10    5   22 ar
  11    5    9 1
  12    6    7 1
  13    7    8 2
  14    7   11 1
  15    8    9 1
  16    8   30 1
  17    9   10 2
  18   10   21 1
  19   11   12 ar
  20   11   16 ar
  21   12   13 ar
  22   13   14 ar
  23   13   31 1
  24   14   15 ar
  25   14   17 ar
  26   15   16 ar
  27   15   20 ar
  28   16   32 1
  29   17   18 ar
  30   17   33 1
  31   18   19 ar
  32   18   34 1
  33   19   20 ar
  34   19   35 1
  35   20   36 1
  36   21   37 1
  37   22   38 1
  38   23   24 1
  39   24   25 1
  40   24   26 1
  41   24   27 1

#	End of record

