#	Name: ASD01230078
#	Creating user name:	WinNT
#	Creation time:	15. 06. 2019 19:11

#	Modifying user name:	WinNT
#	Modification time:	15. 06. 2019 19:11

#	Program:	/corina/corina34_cracker 3.40 0067  02.08.2006

@<TRIPOS>MOLECULE
ASD01230078
  51   54    0    0    0
SMALL
NO_CHARGES


@<TRIPOS>ATOM
   1 C1            -0.0169     1.3935     0.0097 C.ar    
   2 C2             0.0021    -0.0041     0.0020 C.ar    
   3 C3            -1.2655    -0.7753     0.0095 C.ar    
   4 C4            -1.2545    -2.1710     0.0019 C.ar    
   5 C5            -2.4664    -2.8534     0.0098 C.ar    
   6 N6            -3.6162    -2.1907     0.0244 N.ar    
   7 C7            -3.6607    -0.8736     0.0319 C.ar    
   8 C8            -2.5021    -0.1227     0.0302 C.ar    
   9 C9            -4.9966    -0.1764     0.0479 C.3     
  10 C10           -2.4739    -4.3371     0.0014 C.ar    
  11 C11           -3.6819    -5.0283     0.0093 C.ar    
  12 C12           -1.2711    -5.0414    -0.0201 C.ar    
  13 C13           -1.2767    -6.4226    -0.0279 C.ar    
  14 C14           -2.4722    -7.1134    -0.0144 C.ar    
  15 C15           -3.6814    -6.4194     0.0014 C.ar    
  16 C16           -4.9654    -7.1634     0.0158 C.ar    
  17 C17           -4.9663    -8.5569     0.0137 C.ar    
  18 C18           -6.1631    -9.2436     0.0277 C.ar    
  19 C19           -7.3607    -8.5512     0.0434 C.ar    
  20 C20           -7.3657    -7.1682     0.0451 C.ar    
  21 C21           -6.1742    -6.4712     0.0374 C.ar    
  22 S22           -6.1661   -11.0056     0.0250 S.o2    
  23 N23           -6.1471   -11.4982     1.6060 N.am    
  24 O24           -7.4233   -11.4039    -0.5042 O.2     
  25 O25           -4.9240   -11.4081    -0.5357 O.2     
  26 C26            1.2303    -0.6612    -0.0132 C.ar    
  27 N27            2.3565     0.0224    -0.0199 N.ar    
  28 C28            2.3703     1.3412    -0.0129 C.ar    
  29 C29            1.1926     2.0665     0.0018 C.ar    
  30 C30            3.6897     2.0693    -0.0206 C.3     
  31 F31            4.7317     1.1448    -0.1497 F       
  32 F32            3.7231     2.9628    -1.0966 F       
  33 F33            3.8392     2.7762     1.1774 F       
  34 H34           -0.9515     1.9346     0.0171 H       
  35 H35           -0.3200    -2.7123    -0.0103 H       
  36 H36           -2.5504     0.9562     0.0364 H       
  37 H37           -5.3093    -0.0139     1.0794 H       
  38 H38           -4.9117     0.7834    -0.4616 H       
  39 H39           -5.7352    -0.7946    -0.4625 H       
  40 H40           -4.6162    -4.4867     0.0218 H       
  41 H41           -0.3331    -4.5061    -0.0310 H       
  42 H42           -0.3425    -6.9642    -0.0449 H       
  43 H43           -2.4707    -8.1934    -0.0206 H       
  44 H44           -4.0319    -9.0984     0.0008 H       
  45 H45           -8.2951    -9.0926     0.0539 H       
  46 H46           -8.3034    -6.6326     0.0566 H       
  47 H47           -6.1792    -5.3912     0.0392 H       
  48 H48           -6.1370   -10.8405     2.3188 H       
  49 H49           -6.1460   -12.4445     1.8191 H       
  50 H50            1.2596    -1.7408    -0.0193 H       
  51 H51            1.2165     3.1462     0.0070 H       
@<TRIPOS>BOND
   1    1    2 ar
   2    1   29 ar
   3    1   34 1
   4    2    3 1
   5    2   26 ar
   6    3    4 ar
   7    3    8 ar
   8    4    5 ar
   9    4   35 1
  10    5    6 ar
  11    5   10 1
  12    6    7 ar
  13    7    8 ar
  14    7    9 1
  15    8   36 1
  16    9   37 1
  17    9   38 1
  18    9   39 1
  19   10   11 ar
  20   10   12 ar
  21   11   15 ar
  22   11   40 1
  23   12   13 ar
  24   12   41 1
  25   13   14 ar
  26   13   42 1
  27   14   15 ar
  28   14   43 1
  29   15   16 1
  30   16   17 ar
  31   16   21 ar
  32   17   18 ar
  33   17   44 1
  34   18   19 ar
  35   18   22 1
  36   19   20 ar
  37   19   45 1
  38   20   21 ar
  39   20   46 1
  40   21   47 1
  41   22   23 am
  42   22   24 2
  43   22   25 2
  44   23   48 1
  45   23   49 1
  46   26   27 ar
  47   26   50 1
  48   27   28 ar
  49   28   30 1
  50   28   29 ar
  51   29   51 1
  52   30   31 1
  53   30   32 1
  54   30   33 1

#	End of record

