#	Name: ASD01903229
#	Creating user name:	WinNT
#	Creation time:	15. 06. 2019 19:54

#	Modifying user name:	WinNT
#	Modification time:	15. 06. 2019 19:54

#	Program:	/corina/corina34_cracker 3.40 0067  02.08.2006

@<TRIPOS>MOLECULE
ASD01903229
  25   27    0    0    0
SMALL
NO_CHARGES


@<TRIPOS>ATOM
   1 S1            -0.0211     1.7049     0.0114 S.3     
   2 C2             0.0021    -0.0041     0.0020 C.2     
   3 N3             1.2221    -0.4387    -0.0120 N.2     
   4 C4             2.1845     0.4751    -0.0162 C.2     
   5 C5             1.7399     1.7439    -0.0052 C.2     
   6 N6            -1.1264    -0.8116     0.0092 N.pl3   
   7 C7            -2.3895    -0.2382     0.0246 C.ar    
   8 C8             3.6285     0.1263    -0.0319 C.2     
   9 C9             4.7037     1.0305     0.0627 C.2     
  10 N10            5.8162     0.3462     0.0127 N.2     
  11 N11            5.4977    -1.0114    -0.1148 N.pl3   
  12 C12            4.1530    -1.1283    -0.1346 C.2     
  13 N13           -3.4555    -1.0242     0.0312 N.ar    
  14 C14           -4.6747    -0.5109     0.0459 C.ar    
  15 C15           -4.8277     0.8686     0.0543 C.ar    
  16 C16           -3.6886     1.6615     0.0470 C.ar    
  17 N17           -2.4996     1.0816     0.0377 N.ar    
  18 F18           -6.0578     1.4269     0.0689 F       
  19 H19            2.3548     2.6318    -0.0066 H       
  20 H20           -1.0320    -1.7769     0.0034 H       
  21 H21            4.6231     2.1031     0.1594 H       
  22 H22            6.1333    -1.7417    -0.1744 H       
  23 H23            3.5940    -2.0481    -0.2229 H       
  24 H24           -5.5400    -1.1571     0.0509 H       
  25 H25           -3.7718     2.7382     0.0528 H       
@<TRIPOS>BOND
   1    1    2 1
   2    1    5 1
   3    2    3 2
   4    2    6 1
   5    3    4 1
   6    4    5 2
   7    4    8 1
   8    5   19 1
   9    6    7 1
  10    6   20 1
  11    7   13 ar
  12    7   17 ar
  13    8    9 1
  14    8   12 2
  15    9   10 2
  16    9   21 1
  17   10   11 1
  18   11   12 1
  19   11   22 1
  20   12   23 1
  21   13   14 ar
  22   14   15 ar
  23   14   24 1
  24   15   16 ar
  25   15   18 1
  26   16   17 ar
  27   16   25 1

#	End of record

