#	Name: ASD01916383
#	Creating user name:	WinNT
#	Creation time:	15. 06. 2019 20:07

#	Modifying user name:	WinNT
#	Modification time:	15. 06. 2019 20:07

#	Program:	/corina/corina34_cracker 3.40 0067  02.08.2006

@<TRIPOS>MOLECULE
ASD01916383
  36   38    0    0    0
SMALL
NO_CHARGES


@<TRIPOS>ATOM
   1 C1            -0.1884     1.1952    -0.0443 C.ar    
   2 C2            -0.2188    -0.1997    -0.0638 C.ar    
   3 C3             0.9755    -0.8975    -0.0890 C.ar    
   4 C4             2.1632    -0.1789    -0.0939 C.ar    
   5 C5             2.1206     1.2029    -0.0737 C.ar    
   6 N6             0.9702     1.8443    -0.0499 N.ar    
   7 C7            -1.4158     1.9325    -0.0241 C.1     
   8 C8            -2.4221     2.5369    -0.0076 C.1     
   9 C9            -3.6839     3.2948     0.0132 C.3     
  10 C10           -3.3782     4.7938     0.0319 C.3     
  11 N11           -4.6294     5.5487    -0.0717 N.pl3   
  12 N12           -5.4800     5.8874     0.9884 N.2     
  13 C13           -6.4946     6.5607     0.5082 C.2     
  14 C14           -6.3358     6.6800    -0.8726 C.2     
  15 C15           -5.1717     6.0526    -1.2160 C.2     
  16 C16           -4.6061     5.9386    -2.5787 C.ar    
  17 C17           -3.7094     4.9136    -2.8813 C.ar    
  18 C18           -3.1858     4.8124    -4.1539 C.ar    
  19 C19           -3.5482     5.7247    -5.1287 C.ar    
  20 C20           -4.4370     6.7434    -4.8348 C.ar    
  21 C21           -4.9716     6.8522    -3.5675 C.ar    
  22 H22           -1.1613    -0.7271    -0.0589 H       
  23 H23            0.9837    -1.9774    -0.1042 H       
  24 H24            3.1120    -0.6946    -0.1131 H       
  25 H25            3.0433     1.7642    -0.0775 H       
  26 H26           -4.2670     3.0540    -0.8757 H       
  27 H27           -4.2528     3.0288     0.9040 H       
  28 H28           -2.8752     5.0504     0.9643 H       
  29 H29           -2.7324     5.0435    -0.8100 H       
  30 H30           -7.3174     6.9572     1.0846 H       
  31 H31           -7.0109     7.1827    -1.5493 H       
  32 H32           -3.4254     4.2010    -2.1210 H       
  33 H33           -2.4913     4.0196    -4.3893 H       
  34 H34           -3.1354     5.6415    -6.1232 H       
  35 H35           -4.7158     7.4528    -5.6000 H       
  36 H36           -5.6685     7.6455    -3.3404 H       
@<TRIPOS>BOND
   1    1    2 ar
   2    1    6 ar
   3    1    7 1
   4    2    3 ar
   5    2   22 1
   6    3    4 ar
   7    3   23 1
   8    4    5 ar
   9    4   24 1
  10    5    6 ar
  11    5   25 1
  12    7    8 3
  13    8    9 1
  14    9   10 1
  15    9   26 1
  16    9   27 1
  17   10   11 1
  18   10   28 1
  19   10   29 1
  20   11   12 1
  21   11   15 1
  22   12   13 2
  23   13   14 1
  24   13   30 1
  25   14   15 2
  26   14   31 1
  27   15   16 1
  28   16   17 ar
  29   16   21 ar
  30   17   18 ar
  31   17   32 1
  32   18   19 ar
  33   18   33 1
  34   19   20 ar
  35   19   34 1
  36   20   21 ar
  37   20   35 1
  38   21   36 1

#	End of record

