#	Name: ASD02198344
#	Creating user name:	WinNT
#	Creation time:	15. 06. 2019 20:19

#	Modifying user name:	WinNT
#	Modification time:	15. 06. 2019 20:19

#	Program:	/corina/corina34_cracker 3.40 0067  02.08.2006

@<TRIPOS>MOLECULE
ASD02198344
  37   39    0    0    0
SMALL
NO_CHARGES


@<TRIPOS>ATOM
   1 C1             0.5417     1.7172     0.0245 C.2     
   2 C2             0.6143     0.3421     0.1444 C.2     
   3 S3             2.1682     2.3597     0.2379 S.3     
   4 C4             2.7807     0.7804     0.4615 C.2     
   5 N5             1.8275    -0.1022     0.3762 N.2     
   6 N6            -0.4893    -0.4887     0.0310 N.pl3   
   7 C7            -0.6219     2.4689    -0.2287 C.2     
   8 C8            -0.5706     3.9458    -0.1912 C.ar    
   9 O9            -1.6720     1.9014    -0.4790 O.2     
  10 N10            4.1040     0.4815     0.7001 N.pl3   
  11 C11           -1.4609     4.6971    -0.9616 C.ar    
  12 C12            0.3646     4.5935     0.6191 C.ar    
  13 C13            0.4091     5.9698     0.6518 C.ar    
  14 C14           -0.4749     6.7139    -0.1202 C.ar    
  15 C15           -1.4104     6.0731    -0.9237 C.ar    
  16 C16            4.4889    -0.8400     0.9456 C.ar    
  17 C17            3.8166    -1.8969     0.3360 C.ar    
  18 C18            4.2348    -3.1883     0.6105 C.ar    
  19 C19            5.2972    -3.3852     1.4734 C.ar    
  20 N20            5.9129    -2.3631     2.0346 N.ar    
  21 C21            5.5509    -1.1182     1.7963 C.ar    
  22 O22           -0.4281     8.0701    -0.0854 O.3     
  23 C23           -1.3655     8.7729    -0.9035 C.3     
  24 H24           -1.3657    -0.1102    -0.1406 H       
  25 H25           -0.3852    -1.4487     0.1234 H       
  26 H26            4.7688     1.1879     0.6979 H       
  27 H27           -2.1879     4.1998    -1.5866 H       
  28 H28            1.0518     4.0159     1.2196 H       
  29 H29            1.1318     6.4713     1.2785 H       
  30 H30           -2.0958     6.6547    -1.5222 H       
  31 H31            2.9894    -1.7138    -0.3338 H       
  32 H32            3.7367    -4.0320     0.1561 H       
  33 H33            5.6271    -4.3903     1.6912 H       
  34 H34            6.0796    -0.3069     2.2744 H       
  35 H35           -2.3795     8.5071    -0.6047 H       
  36 H36           -1.2206     9.8463    -0.7822 H       
  37 H37           -1.2116     8.5012    -1.9479 H       
@<TRIPOS>BOND
   1    1    2 2
   2    1    3 1
   3    1    7 1
   4    2    6 1
   5    2    5 1
   6    3    4 1
   7    4    5 2
   8    4   10 1
   9    6   24 1
  10    6   25 1
  11    7    8 1
  12    7    9 2
  13    8   11 ar
  14    8   12 ar
  15   10   16 1
  16   10   26 1
  17   11   15 ar
  18   11   27 1
  19   12   13 ar
  20   12   28 1
  21   13   14 ar
  22   13   29 1
  23   14   15 ar
  24   14   22 1
  25   15   30 1
  26   16   17 ar
  27   16   21 ar
  28   17   18 ar
  29   17   31 1
  30   18   19 ar
  31   18   32 1
  32   19   20 ar
  33   19   33 1
  34   20   21 ar
  35   21   34 1
  36   22   23 1
  37   23   35 1
  38   23   36 1
  39   23   37 1

#	End of record

