#	Name: ASD00192096
#	Creating user name:	WinNT
#	Creation time:	15. 06. 2019 18:33

#	Modifying user name:	WinNT
#	Modification time:	15. 06. 2019 18:33

#	Program:	/corina/corina34_cracker 3.40 0067  02.08.2006

@<TRIPOS>MOLECULE
ASD00192096
  62   68    0    0    0
SMALL
NO_CHARGES


@<TRIPOS>ATOM
   1 C1             0.2833     1.2266    -0.7029 C.ar    
   2 C2             0.3539    -0.1590    -0.7923 C.ar    
   3 C3             1.5549    -0.8037    -0.7698 C.ar    
   4 C4             2.7421    -0.0643    -0.6548 C.ar    
   5 C5             2.6640     1.3456    -0.5642 C.ar    
   6 C6             1.4189     1.9764    -0.5900 C.ar    
   7 N7             3.9352    -0.6765    -0.6301 N.ar    
   8 C8             5.0691    -0.0186    -0.5232 C.ar    
   9 C9             5.1074     1.3817    -0.4263 C.ar    
  10 C10            3.9100     2.1043    -0.4448 C.ar    
  11 N11            6.1106     2.3182    -0.3074 N.pl3   
  12 C12            5.5217     3.5338    -0.2578 C.2     
  13 N13            4.2258     3.4033    -0.3392 N.2     
  14 N14            6.2608    -0.7281    -0.5051 N.pl3   
  15 C15            6.2418    -2.1259    -0.4803 C.ar    
  16 C16            7.2249    -2.8469    -1.1460 C.ar    
  17 C17            5.2431    -2.7958     0.2147 C.ar    
  18 C18            5.2262    -4.1768     0.2378 C.ar    
  19 C19            6.2030    -4.8934    -0.4300 C.ar    
  20 C20            7.2035    -4.2284    -1.1198 C.ar    
  21 Cl21           6.1788    -6.6290    -0.3982 Cl      
  22 Cl22           8.4273    -5.1310    -1.9572 Cl      
  23 C23            6.2530     4.8451    -0.1281 C.3     
  24 C24            6.5304     5.1304     1.3492 C.3     
  25 C25            7.2729     6.4617     1.4809 C.3     
  26 C26            8.5974     6.3845     0.7189 C.3     
  27 C27            8.3200     6.0992    -0.7584 C.3     
  28 C28            7.5776     4.7679    -0.8901 C.3     
  29 N29            6.4499     7.5372     0.9219 N.am    
  30 C30            6.0186     8.6052     1.6169 C.2     
  31 C31            5.2218     9.4635     0.7150 C.ar    
  32 C32            5.2269     8.8165    -0.5372 C.ar    
  33 C33            6.0310     7.5897    -0.3553 C.2     
  34 C34            4.5443    10.6625     0.8684 C.ar    
  35 C35            3.8760    11.2172    -0.2119 C.ar    
  36 C36            3.8810    10.5828    -1.4399 C.ar    
  37 C37            4.5544     9.3830    -1.6082 C.ar    
  38 O38            6.2452     8.8268     2.7892 O.2     
  39 O39            6.2680     6.7637    -1.2136 O.2     
  40 H40           -0.6795     1.7153    -0.7274 H       
  41 H41           -0.5565    -0.7334    -0.8806 H       
  42 H42            1.5926    -1.8808    -0.8399 H       
  43 H43            1.3541     3.0522    -0.5208 H       
  44 H44            7.0630     2.1386    -0.2664 H       
  45 H45            7.1073    -0.2546    -0.5096 H       
  46 H46            8.0049    -2.3285    -1.6837 H       
  47 H47            4.4805    -2.2372     0.7370 H       
  48 H48            4.4496    -4.6978     0.7782 H       
  49 H49            5.6408     5.6453    -0.5440 H       
  50 H50            5.5868     5.1855     1.8920 H       
  51 H51            7.1427     4.3303     1.7651 H       
  52 H52            7.4705     6.6650     2.5334 H       
  53 H53            9.1263     7.3329     0.8127 H       
  54 H54            9.2097     5.5843     1.1348 H       
  55 H55            7.7078     6.8993    -1.1743 H       
  56 H56            9.2637     6.0441    -1.3012 H       
  57 H57            8.1898     3.9677    -0.4742 H       
  58 H58            7.3800     4.5646    -1.9425 H       
  59 H59            4.5367    11.1624     1.8257 H       
  60 H60            3.3474    12.1515    -0.0931 H       
  61 H61            3.3566    11.0250    -2.2741 H       
  62 H62            4.5546     8.8915    -2.5699 H       
@<TRIPOS>BOND
   1    1    2 ar
   2    1    6 ar
   3    1   40 1
   4    2    3 ar
   5    2   41 1
   6    3    4 ar
   7    3   42 1
   8    4    5 ar
   9    4    7 ar
  10    5    6 ar
  11    5   10 ar
  12    6   43 1
  13    7    8 ar
  14    8    9 ar
  15    8   14 1
  16    9   10 ar
  17    9   11 1
  18   10   13 1
  19   11   12 1
  20   11   44 1
  21   12   13 2
  22   12   23 1
  23   14   15 1
  24   14   45 1
  25   15   16 ar
  26   15   17 ar
  27   16   20 ar
  28   16   46 1
  29   17   18 ar
  30   17   47 1
  31   18   19 ar
  32   18   48 1
  33   19   20 ar
  34   19   21 1
  35   20   22 1
  36   23   24 1
  37   23   28 1
  38   23   49 1
  39   24   25 1
  40   24   50 1
  41   24   51 1
  42   25   26 1
  43   25   29 1
  44   25   52 1
  45   26   27 1
  46   26   53 1
  47   26   54 1
  48   27   28 1
  49   27   55 1
  50   27   56 1
  51   28   57 1
  52   28   58 1
  53   29   30 am
  54   29   33 am
  55   30   31 1
  56   30   38 2
  57   31   32 ar
  58   31   34 ar
  59   32   33 1
  60   32   37 ar
  61   33   39 2
  62   34   35 ar
  63   34   59 1
  64   35   36 ar
  65   35   60 1
  66   36   37 ar
  67   36   61 1
  68   37   62 1

#	End of record

