#	Name: ASD01230013
#	Creating user name:	WinNT
#	Creation time:	15. 06. 2019 19:11

#	Modifying user name:	WinNT
#	Modification time:	15. 06. 2019 19:11

#	Program:	/corina/corina34_cracker 3.40 0067  02.08.2006

@<TRIPOS>MOLECULE
ASD01230013
  51   53    0    0    0
SMALL
NO_CHARGES


@<TRIPOS>ATOM
   1 C1            -1.6005     1.7638     0.9177 C.3     
   2 C2            -1.7331     0.2654     1.1975 C.3     
   3 C3            -3.1964    -0.0709     1.4918 C.3     
   4 S4            -1.1771    -0.6720    -0.2526 S.o2    
   5 O5            -2.0665    -0.4769    -1.3435 O.2     
   6 O6             0.2280    -0.5432    -0.4209 O.2     
   7 N7            -1.3938    -2.2577     0.1725 N.am    
   8 C8            -1.5152    -3.4672     2.3307 C.3     
   9 C9            -0.6003    -2.8403     1.2574 C.3     
  10 C10            0.2046    -4.0578     0.7557 C.3     
  11 C11            0.2197    -5.0288     1.9171 C.ar    
  12 C12            1.0334    -6.1205     2.1594 C.ar    
  13 C13            0.8594    -6.8789     3.3135 C.ar    
  14 C14           -0.1382    -6.5327     4.2228 C.ar    
  15 C15           -0.9448    -5.4428     3.9733 C.ar    
  16 C16           -0.7691    -4.6894     2.8230 C.ar    
  17 C17            1.7317    -8.0508     3.5741 C.ar    
  18 C18            2.7287    -8.3966     2.6639 C.ar    
  19 C19            3.5373    -9.4871     2.9115 C.ar    
  20 C20            3.3593   -10.2368     4.0604 C.ar    
  21 C21            2.3714    -9.8982     4.9671 C.ar    
  22 C22            1.5606    -8.8059     4.7323 C.ar    
  23 C23            2.1835   -10.7196     6.2164 C.3     
  24 C24            3.0396   -10.1565     7.3214 C.2     
  25 C25            3.0329   -10.8019     8.6832 C.3     
  26 O26            3.7310    -9.1880     7.1156 O.2     
  27 H27           -1.9346     2.3270     1.7890 H       
  28 H28           -0.5580     2.0034     0.7080 H       
  29 H29           -2.2144     2.0283     0.0568 H       
  30 H30           -1.1192     0.0008     2.0584 H       
  31 H31           -3.8201     0.2649     0.6634 H       
  32 H32           -3.3040    -1.1487     1.6141 H       
  33 H33           -3.5075     0.4315     2.4077 H       
  34 H34           -2.0462    -2.8009    -0.2969 H       
  35 H35           -1.6733    -2.7654     3.1496 H       
  36 H36           -2.4693    -3.7581     1.8913 H       
  37 H37            0.0581    -2.0920     1.6986 H       
  38 H38           -0.2877    -4.5073    -0.1067 H       
  39 H39            1.2210    -3.7595     0.4989 H       
  40 H40            1.8050    -6.3852     1.4516 H       
  41 H41           -0.2793    -7.1166     5.1203 H       
  42 H42           -1.7179    -5.1744     4.6780 H       
  43 H43            2.8681    -7.8124     1.7663 H       
  44 H44            4.3103    -9.7560     2.2068 H       
  45 H45            3.9939   -11.0899     4.2499 H       
  46 H46            0.7921    -8.5398     5.4430 H       
  47 H47            1.1362   -10.6895     6.5170 H       
  48 H48            2.4756   -11.7513     6.0203 H       
  49 H49            3.8046   -11.5705     8.7248 H       
  50 H50            3.2307   -10.0469     9.4441 H       
  51 H51            2.0585   -11.2551     8.8657 H       
@<TRIPOS>BOND
   1    1    2 1
   2    1   27 1
   3    1   28 1
   4    1   29 1
   5    2    3 1
   6    2    4 1
   7    2   30 1
   8    3   31 1
   9    3   32 1
  10    3   33 1
  11    4    5 2
  12    4    6 2
  13    4    7 am
  14    7    9 1
  15    7   34 1
  16    8    9 1
  17    8   16 1
  18    8   35 1
  19    8   36 1
  20    9   10 1
  21    9   37 1
  22   10   11 1
  23   10   38 1
  24   10   39 1
  25   11   12 ar
  26   11   16 ar
  27   12   13 ar
  28   12   40 1
  29   13   14 ar
  30   13   17 1
  31   14   15 ar
  32   14   41 1
  33   15   16 ar
  34   15   42 1
  35   17   18 ar
  36   17   22 ar
  37   18   19 ar
  38   18   43 1
  39   19   20 ar
  40   19   44 1
  41   20   21 ar
  42   20   45 1
  43   21   22 ar
  44   21   23 1
  45   22   46 1
  46   23   24 1
  47   23   47 1
  48   23   48 1
  49   24   25 1
  50   24   26 2
  51   25   49 1
  52   25   50 1
  53   25   51 1

#	End of record

