#	Name: ASD01882040
#	Creating user name:	WinNT
#	Creation time:	15. 06. 2019 19:43

#	Modifying user name:	WinNT
#	Modification time:	15. 06. 2019 19:43

#	Program:	/corina/corina34_cracker 3.40 0067  02.08.2006

@<TRIPOS>MOLECULE
ASD01882040
  52   54    0    0    0
SMALL
NO_CHARGES


@<TRIPOS>ATOM
   1 C1            -2.1593     3.1606     2.9872 C.2     
   2 C2            -2.8485     2.7881     4.2745 C.3     
   3 O3            -1.4208     2.3714     2.4469 O.2     
   4 O4            -2.3700     4.3671     2.4378 O.3     
   5 C5            -1.6538     4.6713     1.3225 C.ar    
   6 C6            -2.0695     4.2061     0.0778 C.ar    
   7 C7            -1.3361     4.5194    -1.0556 C.ar    
   8 C8            -0.1948     5.2921    -0.9486 C.ar    
   9 C9             0.2178     5.7539     0.2873 C.ar    
  10 C10           -0.5119     5.4496     1.4216 C.ar    
  11 O11           -3.1918     3.4460    -0.0254 O.3     
  12 N12           -8.1570     5.7581    -0.0857 N.pl3   
  13 N13           -8.8858     4.5599    -0.0557 N.2     
  14 N14           -8.0719     3.5642    -0.0308 N.2     
  15 C15           -6.7967     4.0010    -0.0419 C.ar    
  16 C16           -6.8266     5.4060    -0.0770 C.ar    
  17 C17           -5.5593     3.3430    -0.0247 C.ar    
  18 C18           -4.3937     4.0814    -0.0427 C.ar    
  19 C19           -4.4396     5.4733    -0.0779 C.ar    
  20 C20           -5.6387     6.1282    -0.0952 C.ar    
  21 C21           -8.7042     7.1165    -0.1251 C.3     
  22 C22           -8.8997     7.6291     1.3031 C.3     
  23 C23           -7.5529     7.6427     2.0289 C.3     
  24 C24           -9.4712     9.0478     1.2620 C.3     
  25 C25           -9.8705     6.7096     2.0467 C.3     
  26 Br26          -5.4875     1.4539     0.0232 Br      
  27 C27           -2.4447     1.3682     4.6769 C.3     
  28 C28           -3.1445     0.9900     5.9838 C.3     
  29 H29           -2.5547     3.4855     5.0590 H       
  30 H30           -3.9286     2.8328     4.1345 H       
  31 H31           -1.6561     4.1596    -2.0224 H       
  32 H32            0.3760     5.5353    -1.8326 H       
  33 H33            1.1101     6.3573     0.3665 H       
  34 H34           -0.1894     5.8152     2.3853 H       
  35 H35           -3.5200     6.0393    -0.0913 H       
  36 H36           -5.6637     7.2076    -0.1222 H       
  37 H37           -8.0126     7.7716    -0.6548 H       
  38 H38           -9.6637     7.1068    -0.6422 H       
  39 H39           -6.8612     8.2978     1.4992 H       
  40 H40           -7.6921     8.0079     3.0464 H       
  41 H41           -7.1457     6.6320     2.0582 H       
  42 H42          -10.4307     9.0381     0.7449 H       
  43 H43           -9.6104     9.4130     2.2795 H       
  44 H44           -8.7795     9.7029     0.7323 H       
  45 H45           -9.4634     5.6989     2.0759 H       
  46 H46          -10.0098     7.0748     3.0642 H       
  47 H47          -10.8300     6.6999     1.5296 H       
  48 H48           -2.7385     0.6708     3.8924 H       
  49 H49           -1.3646     1.3236     4.8169 H       
  50 H50           -2.8506     1.6874     6.7683 H       
  51 H51           -4.2245     1.0347     5.8438 H       
  52 H52           -2.8568    -0.0215     6.2705 H       
@<TRIPOS>BOND
   1    1    2 1
   2    1    3 2
   3    1    4 1
   4    2   27 1
   5    2   29 1
   6    2   30 1
   7    4    5 1
   8    5    6 ar
   9    5   10 ar
  10    6    7 ar
  11    6   11 1
  12    7    8 ar
  13    7   31 1
  14    8    9 ar
  15    8   32 1
  16    9   10 ar
  17    9   33 1
  18   10   34 1
  19   11   18 1
  20   12   13 1
  21   12   16 1
  22   12   21 1
  23   13   14 2
  24   14   15 1
  25   15   16 ar
  26   15   17 ar
  27   16   20 ar
  28   17   18 ar
  29   17   26 1
  30   18   19 ar
  31   19   20 ar
  32   19   35 1
  33   20   36 1
  34   21   22 1
  35   21   37 1
  36   21   38 1
  37   22   23 1
  38   22   24 1
  39   22   25 1
  40   23   39 1
  41   23   40 1
  42   23   41 1
  43   24   42 1
  44   24   43 1
  45   24   44 1
  46   25   45 1
  47   25   46 1
  48   25   47 1
  49   27   28 1
  50   27   48 1
  51   27   49 1
  52   28   50 1
  53   28   51 1
  54   28   52 1

#	End of record

