#	Name: ASD07930634
#	Creating user name:	WinNT
#	Creation time:	15. 06. 2019 21:12

#	Modifying user name:	WinNT
#	Modification time:	15. 06. 2019 21:12

#	Program:	/corina/corina34_cracker 3.40 0067  02.08.2006

@<TRIPOS>MOLECULE
ASD07930634
  48   50    0    0    0
SMALL
NO_CHARGES


@<TRIPOS>ATOM
   1 C1            -0.0343     1.4581     0.0424 C.3     
   2 N2             0.7953    -0.4134    -2.1302 N.2     
   3 N3            -0.8904    -1.7835    -1.2685 N.pl3   
   4 C4            -0.9150    -2.8271    -0.2382 C.3     
   5 C5            -1.2300    -2.1885     1.1215 C.3     
   6 S6             0.0062    -0.8913     1.4434 S.o2    
   7 N7            -0.0141    -0.0067     0.0315 N.am    
   8 C8            -0.0113    -0.7260    -1.1552 C.2     
   9 C9             0.4500    -3.5154    -0.1755 C.3     
  10 C10           -1.9765    -3.8423    -0.5755 C.ar    
  11 C11           -2.8068    -3.6380    -1.6597 C.ar    
  12 C12           -3.7847    -4.5743    -1.9703 C.ar    
  13 C13           -3.9250    -5.7139    -1.1895 C.ar    
  14 C14           -3.0923    -5.9142    -0.1058 C.ar    
  15 C15           -2.1147    -4.9822     0.1989 C.ar    
  16 O16           -0.4576     0.0117     2.4378 O.2     
  17 O17            1.3140    -1.4440     1.5003 O.2     
  18 N18           -4.6275    -4.3691    -3.0683 N.am    
  19 C19           -5.0471    -5.4195    -3.8012 C.2     
  20 O20           -4.6175    -6.5324    -3.5696 O.2     
  21 C21           -6.0326    -5.2171    -4.8900 C.ar    
  22 N22           -6.4332    -6.2624    -5.5999 N.ar    
  23 F23           -1.3013    -5.1800     1.2593 F       
  24 C24           -7.3091    -6.1211    -6.5767 C.ar    
  25 C25           -7.8130    -4.8515    -6.8569 C.ar    
  26 C26           -7.3674    -3.7768    -6.0881 C.ar    
  27 N27           -6.4936    -3.9965    -5.1240 N.ar    
  28 O28           -8.7150    -4.6661    -7.8541 O.3     
  29 C29           -9.1774    -3.3314    -8.0708 C.3     
  30 H30            0.9883     1.8356     0.0393 H       
  31 H31           -0.5582     1.8209    -0.8419 H       
  32 H32           -0.5479     1.8077     0.9380 H       
  33 H33            1.4071     0.3331    -2.0331 H       
  34 H34           -1.4883    -1.8387    -2.0303 H       
  35 H35           -2.2270    -1.7484     1.0987 H       
  36 H36           -1.1800    -2.9460     1.9037 H       
  37 H37            1.2165    -2.7805     0.0704 H       
  38 H38            0.4311    -4.2908     0.5903 H       
  39 H39            0.6749    -3.9652    -1.1426 H       
  40 H40           -2.6962    -2.7508    -2.2655 H       
  41 H41           -4.6850    -6.4429    -1.4291 H       
  42 H42           -3.2011    -6.8004     0.5018 H       
  43 H43           -4.9097    -3.4710    -3.3019 H       
  44 H44           -7.6310    -6.9770    -7.1514 H       
  45 H45           -7.7356    -2.7791    -6.2763 H       
  46 H46           -8.3317    -2.6896    -8.3178 H       
  47 H47           -9.8920    -3.3236    -8.8938 H       
  48 H48           -9.6610    -2.9630    -7.1661 H       
@<TRIPOS>BOND
   1    1    7 1
   2    1   30 1
   3    1   31 1
   4    1   32 1
   5    2    8 2
   6    2   33 1
   7    3    4 1
   8    3    8 1
   9    3   34 1
  10    4    5 1
  11    4    9 1
  12    4   10 1
  13    5    6 1
  14    5   35 1
  15    5   36 1
  16    6    7 am
  17    6   16 2
  18    6   17 2
  19    7    8 1
  20    9   37 1
  21    9   38 1
  22    9   39 1
  23   10   11 ar
  24   10   15 ar
  25   11   12 ar
  26   11   40 1
  27   12   13 ar
  28   12   18 1
  29   13   14 ar
  30   13   41 1
  31   14   15 ar
  32   14   42 1
  33   15   23 1
  34   18   19 am
  35   18   43 1
  36   19   20 2
  37   19   21 1
  38   21   22 ar
  39   21   27 ar
  40   22   24 ar
  41   24   25 ar
  42   24   44 1
  43   25   26 ar
  44   25   28 1
  45   26   27 ar
  46   26   45 1
  47   28   29 1
  48   29   46 1
  49   29   47 1
  50   29   48 1

#	End of record

