#	Name: ASD05490126
#	Creating user name:	WinNT
#	Creation time:	15. 06. 2019 21:01

#	Modifying user name:	WinNT
#	Modification time:	15. 06. 2019 21:01

#	Program:	/corina/corina34_cracker 3.40 0067  02.08.2006

@<TRIPOS>MOLECULE
ASD05490126
  74   79    0    0    0
SMALL
NO_CHARGES


@<TRIPOS>ATOM
   1 N1            -0.0178     1.4608     0.0101 N.pl3   
   2 O2             4.5582     2.8949    -0.0261 O.3     
   3 N3             2.7941     4.3826    -0.0015 N.ar    
   4 C4             1.4952     4.6638     0.0118 C.ar    
   5 C5             3.2233     3.1292    -0.0123 C.ar    
   6 N6             2.3949     2.0994    -0.0093 N.ar    
   7 C7             1.0795     2.2895     0.0040 C.ar    
   8 C8             0.5781     3.6006     0.0150 C.ar    
   9 N9             1.0558     5.9772     0.0226 N.pl3   
  10 C10           -1.1306     2.2546     0.0190 C.2     
  11 N11           -0.7773     3.5129     0.0270 N.2     
  12 C12            5.4173     4.0368    -0.0280 C.3     
  13 C13            6.8766     3.5771    -0.0442 C.3     
  14 C14            7.7962     4.7955    -0.1721 C.3     
  15 C15            9.2543     4.3334    -0.1082 C.3     
  16 C16            0.0021    -0.0041     0.0020 C.3     
  17 C17            0.0225    -0.5140     1.4200 C.ar    
  18 C18           -1.1674    -0.7635     2.0797 C.ar    
  19 C19           -1.1546    -1.2305     3.3784 C.ar    
  20 C20            0.0599    -1.4507     4.0249 C.ar    
  21 C21            1.2555    -1.1977     3.3555 C.ar    
  22 C22            1.2310    -0.7362     2.0550 C.ar    
  23 C23            0.0799    -1.9524     5.4213 C.ar    
  24 O24            9.4772     3.6323     1.1169 O.3     
  25 C25            8.6786     2.4572     1.2704 C.3     
  26 C26            7.1973     2.8439     1.2619 C.3     
  27 C27            1.2932    -2.1762     6.0781 C.ar    
  28 C28           -1.1101    -2.2022     6.1007 C.ar    
  29 N29           -1.0937    -2.6472     7.3407 N.ar    
  30 C30            0.0351    -2.8725     7.9844 C.ar    
  31 C31            1.2582    -2.6441     7.3803 C.ar    
  32 N32           -0.1494    -2.2470    10.3252 N.3     
  33 C33           -0.4335    -2.7126    11.6951 C.3     
  34 C34            0.6639    -2.1326    12.6119 C.3     
  35 C35            1.1810    -0.9105    11.8082 C.3     
  36 C36            1.0820    -1.4293    10.3519 C.3     
  37 C37           -0.0084    -3.3811     9.4023 C.3     
  38 O38           -2.4073     1.8048     0.0270 O.3     
  39 C39           -3.4422     2.7900     0.0462 C.3     
  40 H40            1.6985     6.7037     0.0206 H       
  41 H41            0.1053     6.1706     0.0323 H       
  42 H42            5.2168     4.6408    -0.9129 H       
  43 H43            5.2335     4.6312     0.8670 H       
  44 H44            7.0386     2.9077    -0.8890 H       
  45 H45            7.6128     5.2918    -1.1250 H       
  46 H46            7.5977     5.4890     0.6451 H       
  47 H47            9.4631     3.6717    -0.9488 H       
  48 H48            9.9129     5.2006    -0.1557 H       
  49 H49           -0.8878    -0.3767    -0.5053 H       
  50 H50            0.8920    -0.3525    -0.5222 H       
  51 H51           -2.1082    -0.5921     1.5778 H       
  52 H52           -2.0842    -1.4247     3.8927 H       
  53 H53            2.1996    -1.3663     3.8521 H       
  54 H54            2.1571    -0.5401     1.5352 H       
  55 H55            8.8798     1.7710     0.4478 H       
  56 H56            8.9224     1.9729     2.2160 H       
  57 H57            6.9868     3.4981     2.1080 H       
  58 H58            6.5857     1.9447     1.3345 H       
  59 H59            2.2341    -1.9893     5.5820 H       
  60 H60           -2.0548    -2.0293     5.6067 H       
  61 H61            2.1760    -2.8327     7.9174 H       
  62 H62           -1.4117    -2.3523    12.0138 H       
  63 H63           -0.4079    -3.8018    11.7293 H       
  64 H64            0.2417    -1.8160    13.5656 H       
  65 H65            1.4620    -2.8590    12.7648 H       
  66 H66            0.5375    -0.0437    11.9585 H       
  67 H67            2.2132    -0.6789    12.0708 H       
  68 H68            1.9498    -2.0419    10.1075 H       
  69 H69            0.9981    -0.5941     9.6565 H       
  70 H70           -0.8576    -4.0540     9.5211 H       
  71 H71            0.9141    -3.9176     9.6243 H       
  72 H72           -3.3425     3.4042     0.9411 H       
  73 H73           -3.3595     3.4211    -0.8387 H       
  74 H74           -4.4139     2.2962     0.0508 H       
@<TRIPOS>BOND
   1    1   16 1
   2    1    7 1
   3    1   10 1
   4    2   12 1
   5    2    5 1
   6    3    4 ar
   7    3    5 ar
   8    4    9 1
   9    4    8 ar
  10    5    6 ar
  11    6    7 ar
  12    7    8 ar
  13    8   11 1
  14    9   40 1
  15    9   41 1
  16   10   11 2
  17   10   38 1
  18   12   13 1
  19   12   42 1
  20   12   43 1
  21   13   14 1
  22   13   26 1
  23   13   44 1
  24   14   15 1
  25   14   45 1
  26   14   46 1
  27   15   24 1
  28   15   47 1
  29   15   48 1
  30   16   17 1
  31   16   49 1
  32   16   50 1
  33   17   18 ar
  34   17   22 ar
  35   18   19 ar
  36   18   51 1
  37   19   20 ar
  38   19   52 1
  39   20   21 ar
  40   20   23 1
  41   21   22 ar
  42   21   53 1
  43   22   54 1
  44   23   27 ar
  45   23   28 ar
  46   24   25 1
  47   25   26 1
  48   25   55 1
  49   25   56 1
  50   26   57 1
  51   26   58 1
  52   27   31 ar
  53   27   59 1
  54   28   29 ar
  55   28   60 1
  56   29   30 ar
  57   30   31 ar
  58   30   37 1
  59   31   61 1
  60   32   33 1
  61   32   36 1
  62   32   37 1
  63   33   34 1
  64   33   62 1
  65   33   63 1
  66   34   35 1
  67   34   64 1
  68   34   65 1
  69   35   36 1
  70   35   66 1
  71   35   67 1
  72   36   68 1
  73   36   69 1
  74   37   70 1
  75   37   71 1
  76   38   39 1
  77   39   72 1
  78   39   73 1
  79   39   74 1

#	End of record

