#	Name: ASD01180028
#	Creating user name:	WinNT
#	Creation time:	15. 06. 2019 19:06

#	Modifying user name:	WinNT
#	Modification time:	15. 06. 2019 19:06

#	Program:	/corina/corina34_cracker 3.40 0067  02.08.2006

@<TRIPOS>MOLECULE
ASD01180028
  31   32    0    0    0
SMALL
NO_CHARGES


@<TRIPOS>ATOM
   1 N1            -0.3851     0.7684     0.6721 N.ar    
   2 C2            -0.1302    -0.5035     0.4820 C.ar    
   3 C3             1.1508    -0.9254     0.0840 C.ar    
   4 N4             2.1170    -0.0468    -0.1038 N.ar    
   5 C5             1.8736     1.2562     0.0860 C.ar    
   6 C6             2.8816     2.2154    -0.1063 C.ar    
   7 C7             2.6062     3.5347     0.0935 C.ar    
   8 C8             1.3335     3.9492     0.4878 C.ar    
   9 C9             0.3329     3.0457     0.6833 C.ar    
  10 C10            0.5811     1.6771     0.4866 C.ar    
  11 S11           -1.4045    -1.6952     0.7279 S.o2    
  12 O12           -0.7074    -2.8979     1.0227 O.2     
  13 O13           -2.2662    -1.0945     1.6849 O.2     
  14 C14           -2.2286    -1.8158    -0.8836 C.3     
  15 Cl15           1.0211     5.6391     0.7330 Cl      
  16 Cl16           3.8557     4.7160    -0.1452 Cl      
  17 O17            1.8582    -2.5312    -1.4780 O.3     
  18 N18            1.4006    -2.2756    -0.1121 N.3     
  19 C19            2.3690    -2.7800     0.8706 C.3     
  20 C20            1.1331    -3.5627    -2.1505 C.3     
  21 H21            3.8711     1.9083    -0.4111 H       
  22 H22           -0.6475     3.3803     0.9889 H       
  23 H23           -1.5093    -2.1386    -1.6363 H       
  24 H24           -3.0409    -2.5401    -0.8230 H       
  25 H25           -2.6308    -0.8411    -1.1598 H       
  26 H26            1.9724    -2.6404     1.8763 H       
  27 H27            2.5467    -3.8408     0.6942 H       
  28 H28            3.3065    -2.2330     0.7706 H       
  29 H29            1.5751    -3.7371    -3.1315 H       
  30 H30            1.1777    -4.4801    -1.5636 H       
  31 H31            0.0934    -3.2576    -2.2694 H       
@<TRIPOS>BOND
   1    1    2 ar
   2    1   10 ar
   3    2    3 ar
   4    2   11 1
   5    3    4 ar
   6    3   18 1
   7    4    5 ar
   8    5    6 ar
   9    5   10 ar
  10    6    7 ar
  11    6   21 1
  12    7    8 ar
  13    7   16 1
  14    8    9 ar
  15    8   15 1
  16    9   10 ar
  17    9   22 1
  18   11   12 2
  19   11   13 2
  20   11   14 1
  21   14   23 1
  22   14   24 1
  23   14   25 1
  24   17   20 1
  25   17   18 1
  26   18   19 1
  27   19   26 1
  28   19   27 1
  29   19   28 1
  30   20   29 1
  31   20   30 1
  32   20   31 1

#	End of record

