#	Name: ASD07931915
#	Creating user name:	WinNT
#	Creation time:	15. 06. 2019 21:13

#	Modifying user name:	WinNT
#	Modification time:	15. 06. 2019 21:13

#	Program:	/corina/corina34_cracker 3.40 0067  02.08.2006

@<TRIPOS>MOLECULE
ASD07931915
  49   51    0    0    0
SMALL
NO_CHARGES


@<TRIPOS>ATOM
   1 C1            -0.0677     1.4235     0.0669 C.2     
   2 N2             0.0306     0.0795     0.0464 N.am    
   3 O3             0.9437     2.1107     0.0641 O.co2   
   4 O4            -1.1685     1.9559     0.0833 O.co2   
   5 S5             1.3605    -2.2788    -0.0599 S.3     
   6 C6             1.2671    -0.5209    -0.1011 C.2     
   7 N7             2.2909     0.2220    -0.2616 N.2     
   8 C8             3.6837    -0.1194    -0.4240 C.3     
   9 C9             3.9925    -1.6168    -0.2790 C.3     
  10 C10            2.9379    -2.4962    -0.9239 C.3     
  11 O11            4.3043    -0.5371     1.8314 O.3     
  12 C12            4.4601     0.4503     0.7985 C.3     
  13 C13            4.0495    -1.8211     1.2432 C.3     
  14 C14            5.1796    -2.7900     1.5970 C.3     
  15 F15            6.3991    -2.2649     1.1561 F       
  16 F16            5.2232    -2.9692     2.9837 F       
  17 F17            4.9499    -4.0216     0.9745 F       
  18 C18            4.2254     0.4339    -1.7169 C.ar    
  19 C19            5.5524     0.2285    -2.0553 C.ar    
  20 C20            6.0526     0.7353    -3.2426 C.ar    
  21 C21            5.2286     1.4477    -4.0922 C.ar    
  22 C22            3.8977     1.6549    -3.7549 C.ar    
  23 C23            3.3966     1.1406    -2.5659 C.ar    
  24 F24            6.3603    -0.4671    -1.2254 F       
  25 N25            3.0619     2.3756    -4.6133 N.pl3   
  26 C26           -1.1728    -0.7451     0.1804 C.3     
  27 C27           -2.4024     0.1597     0.2815 C.3     
  28 C28           -1.3074    -1.6536    -1.0433 C.3     
  29 C29           -1.0655    -1.6026     1.4430 C.3     
  30 H30            4.9683    -1.8346    -0.7131 H       
  31 H31            3.2462    -3.5398    -0.8604 H       
  32 H32            2.8209    -2.2147    -1.9704 H       
  33 H33            5.5142     0.5775     0.5520 H       
  34 H34            4.0268     1.3996     1.1135 H       
  35 H35            3.0968    -2.2111     1.6014 H       
  36 H36            7.0879     0.5739    -3.5045 H       
  37 H37            5.6194     1.8435    -5.0180 H       
  38 H38            2.3607     1.2970    -2.3035 H       
  39 H39            3.4117     2.7314    -5.4452 H       
  40 H40            2.1322     2.5199    -4.3770 H       
  41 H41           -2.4789     0.7706    -0.6180 H       
  42 H42           -3.2978    -0.4538     0.3812 H       
  43 H43           -2.3066     0.8070     1.1533 H       
  44 H44           -0.4832    -2.3668    -1.0587 H       
  45 H45           -2.2534    -2.1927    -0.9933 H       
  46 H46           -1.2814    -1.0487    -1.9496 H       
  47 H47           -1.0500    -0.9566     2.3207 H       
  48 H48           -1.9227    -2.2734     1.5005 H       
  49 H49           -0.1472    -2.1888     1.4071 H       
@<TRIPOS>BOND
   1    1    2 am
   2    1    3 ar
   3    1    4 ar
   4    2    6 1
   5    2   26 1
   6    5    6 1
   7    5   10 1
   8    6    7 2
   9    7    8 1
  10    8   12 1
  11    8   18 1
  12    8    9 1
  13    9   10 1
  14    9   13 1
  15    9   30 1
  16   10   31 1
  17   10   32 1
  18   11   12 1
  19   11   13 1
  20   12   33 1
  21   12   34 1
  22   13   14 1
  23   13   35 1
  24   14   15 1
  25   14   16 1
  26   14   17 1
  27   18   19 ar
  28   18   23 ar
  29   19   20 ar
  30   19   24 1
  31   20   21 ar
  32   20   36 1
  33   21   22 ar
  34   21   37 1
  35   22   23 ar
  36   22   25 1
  37   23   38 1
  38   25   39 1
  39   25   40 1
  40   26   27 1
  41   26   29 1
  42   26   28 1
  43   27   41 1
  44   27   42 1
  45   27   43 1
  46   28   44 1
  47   28   45 1
  48   28   46 1
  49   29   47 1
  50   29   48 1
  51   29   49 1

#	End of record

