#	Name: ASD03740264
#	Creating user name:	WinNT
#	Creation time:	15. 06. 2019 20:47

#	Modifying user name:	WinNT
#	Modification time:	15. 06. 2019 20:47

#	Program:	/corina/corina34_cracker 3.40 0067  02.08.2006

@<TRIPOS>MOLECULE
ASD03740264
  66   69    0    0    0
SMALL
NO_CHARGES


@<TRIPOS>ATOM
   1 C1            -0.8076     0.2857    -0.7251 C.ar    
   2 C2            -0.3194    -1.0033    -0.5931 C.ar    
   3 C3             1.0425    -1.2380    -0.4540 C.ar    
   4 C4             1.9412    -0.1938    -0.4440 C.ar    
   5 C5             1.4780     1.1314    -0.5763 C.ar    
   6 C6             0.0922     1.3806    -0.7186 C.ar    
   7 N7            -0.3535     2.6322    -0.8447 N.ar    
   8 C8             0.4642     3.6566    -0.8412 C.ar    
   9 C9             1.8466     3.4898    -0.7053 C.ar    
  10 C10            2.3705     2.2175    -0.5702 C.ar    
  11 N11            2.6927     4.6024    -0.7053 N.3     
  12 C12            3.6685     4.5263    -1.8141 C.3     
  13 C13            4.9762     5.1640    -1.3096 C.3     
  14 C14            4.6880     5.5727     0.1532 C.3     
  15 C15            3.4992     4.6577     0.5408 C.3     
  16 C16            5.9005     5.2910     1.0429 C.3     
  17 N17            7.0068     6.1686     0.6529 N.am    
  18 S18            8.3087     6.3567     1.6589 S.o2    
  19 O19            9.1481     7.2785     0.9771 O.2     
  20 O20            7.7348     6.6810     2.9178 O.2     
  21 C21            9.0787     4.7151     1.7143 C.3     
  22 O22            3.2696    -0.4401    -0.3067 O.3     
  23 C23            4.0657    -0.3846    -1.4921 C.3     
  24 C24            1.5433    -2.6523    -0.3118 C.3     
  25 C25            0.3524    -3.6101    -0.2387 C.3     
  26 C26            2.4119    -3.0096    -1.5195 C.3     
  27 C27            2.3739    -2.7729     0.9674 C.3     
  28 C28           -2.2601     0.5182    -0.8784 C.2     
  29 C29           -2.9079     0.2422    -2.1086 C.2     
  30 O30           -2.2685    -0.1912    -3.0526 O.2     
  31 N31           -4.2311     0.4592    -2.2324 N.am    
  32 C32           -4.9608     0.9408    -1.1933 C.2     
  33 C33           -4.3823     1.2181    -0.0004 C.2     
  34 C34           -3.0118     1.0046     0.1812 C.2     
  35 H35           -1.0062    -1.8367    -0.5979 H       
  36 H36            0.0613     4.6531    -0.9460 H       
  37 H37            3.4339     2.0626    -0.4632 H       
  38 H38            3.8433     3.4848    -2.0841 H       
  39 H39            3.2946     5.0785    -2.6763 H       
  40 H40            5.7895     4.4393    -1.3468 H       
  41 H41            5.2235     6.0422    -1.9060 H       
  42 H42            4.4014     6.6227     0.2111 H       
  43 H43            2.9224     5.0999     1.3531 H       
  44 H44            3.8523     3.6636     0.8150 H       
  45 H45            5.6382     5.4778     2.0843 H       
  46 H46            6.2033     4.2505     0.9256 H       
  47 H47            6.9767     6.6395    -0.1945 H       
  48 H48            9.3804     4.4212     0.7090 H       
  49 H49            9.9549     4.7465     2.3620 H       
  50 H50            8.3636     3.9914     2.1053 H       
  51 H51            3.6112    -1.0052    -2.2644 H       
  52 H52            4.1247     0.6460    -1.8422 H       
  53 H53            5.0684    -0.7521    -1.2740 H       
  54 H54           -0.2394    -3.5241    -1.1501 H       
  55 H55            0.7146    -4.6330    -0.1359 H       
  56 H56           -0.2664    -3.3555     0.6217 H       
  57 H57            3.3841    -2.5263    -1.4236 H       
  58 H58            2.5462    -4.0905    -1.5634 H       
  59 H59            1.9241    -2.6668    -2.4320 H       
  60 H60            1.7551    -2.5183     1.8279 H       
  61 H61            2.7361    -3.7958     1.0703 H       
  62 H62            3.2224    -2.0906     0.9154 H       
  63 H63           -4.6695     0.2690    -3.0765 H       
  64 H64           -6.0206     1.1059    -1.3203 H       
  65 H65           -4.9808     1.6009     0.8130 H       
  66 H66           -2.5451     1.2190     1.1313 H       
@<TRIPOS>BOND
   1    1    2 ar
   2    1    6 ar
   3    1   28 1
   4    2    3 ar
   5    2   35 1
   6    3    4 ar
   7    3   24 1
   8    4    5 ar
   9    4   22 1
  10    5    6 ar
  11    5   10 ar
  12    6    7 ar
  13    7    8 ar
  14    8    9 ar
  15    8   36 1
  16    9   10 ar
  17    9   11 1
  18   10   37 1
  19   11   12 1
  20   11   15 1
  21   12   13 1
  22   12   38 1
  23   12   39 1
  24   13   14 1
  25   13   40 1
  26   13   41 1
  27   14   15 1
  28   14   16 1
  29   14   42 1
  30   15   43 1
  31   15   44 1
  32   16   17 1
  33   16   45 1
  34   16   46 1
  35   17   18 am
  36   17   47 1
  37   18   19 2
  38   18   20 2
  39   18   21 1
  40   21   48 1
  41   21   49 1
  42   21   50 1
  43   22   23 1
  44   23   51 1
  45   23   52 1
  46   23   53 1
  47   24   25 1
  48   24   26 1
  49   24   27 1
  50   25   54 1
  51   25   55 1
  52   25   56 1
  53   26   57 1
  54   26   58 1
  55   26   59 1
  56   27   60 1
  57   27   61 1
  58   27   62 1
  59   28   29 1
  60   28   34 2
  61   29   30 2
  62   29   31 am
  63   31   32 1
  64   31   63 1
  65   32   33 2
  66   32   64 1
  67   33   34 1
  68   33   65 1
  69   34   66 1

#	End of record

