#	Name: ASD01810579
#	Creating user name:	WinNT
#	Creation time:	15. 06. 2019 19:24

#	Modifying user name:	WinNT
#	Modification time:	15. 06. 2019 19:24

#	Program:	/corina/corina34_cracker 3.40 0067  02.08.2006

@<TRIPOS>MOLECULE
ASD01810579
  70   75    0    0    0
SMALL
NO_CHARGES


@<TRIPOS>ATOM
   1 C1             0.0281     1.2141    -0.2857 C.ar    
   2 C2            -0.0631    -0.1460    -0.0160 C.ar    
   3 C3            -1.2943    -0.7263     0.2265 C.ar    
   4 C4            -2.4407     0.0411     0.2023 C.ar    
   5 C5            -2.3598     1.4086    -0.0673 C.ar    
   6 C6            -1.1174     1.9951    -0.3062 C.ar    
   7 N7             1.2761     1.7964    -0.5309 N.am    
   8 C8             1.1841    -0.9914     0.0118 C.3     
   9 C9            -3.5869     2.2331    -0.0943 C.2     
  10 N10           -4.6776     1.7968    -0.7548 N.am    
  11 O11           -3.6119     3.3045     0.4793 O.2     
  12 C12           -4.6944     0.4639    -1.3730 C.3     
  13 C13           -5.0676     0.6123    -2.8524 C.3     
  14 C14           -6.3674     1.3962    -2.9720 C.3     
  15 C15           -6.2380     2.7809    -2.3524 C.3     
  16 C16           -5.8739     2.6429    -0.8648 C.3     
  17 C17            1.4749     3.1022    -0.2627 C.2     
  18 C18            2.8157     3.6938    -0.4304 C.ar    
  19 O19            0.5489     3.7926     0.1177 O.2     
  20 C20            3.0340     5.0525    -0.1539 C.ar    
  21 C21            3.8869     2.9093    -0.8608 C.ar    
  22 N22            5.0842     3.4365    -1.0104 N.ar    
  23 C23            5.3160     4.7180    -0.7609 C.ar    
  24 C24            4.2941     5.5589    -0.3230 C.ar    
  25 N25            6.5923     5.2268    -0.9324 N.3     
  26 C26            7.5217     4.1785    -1.3922 C.3     
  27 C27            8.1448     4.6686    -2.7162 C.3     
  28 C28            7.9636     6.2074    -2.6392 C.3     
  29 C29            6.5961     6.3259    -1.9212 C.3     
  30 C30           -6.8050     1.4922    -4.4152 C.ar    
  31 C31           -7.8317     0.5675    -4.5848 C.ar    
  32 O32           -8.0829    -0.1089    -3.4292 O.3     
  33 C33           -7.5270     0.6196    -2.3198 C.3     
  34 C34           -6.3788     2.2783    -5.4649 C.ar    
  35 C35           -6.9723     2.1627    -6.7060 C.ar    
  36 C36           -8.0078     1.2452    -6.8934 C.ar    
  37 C37           -8.4345     0.4502    -5.8312 C.ar    
  38 C38           -8.6312     1.1210    -8.1766 C.1     
  39 N39           -9.1258     1.0225    -9.1946 N.1     
  40 H40           -1.3589    -1.7840     0.4352 H       
  41 H41           -3.4007    -0.4162     0.3915 H       
  42 H42           -1.0486     3.0525    -0.5153 H       
  43 H43            1.9985     1.2605    -0.8940 H       
  44 H44            1.5925    -1.0034     1.0224 H       
  45 H45            0.9403    -2.0089    -0.2936 H       
  46 H46            1.9218    -0.5734    -0.6732 H       
  47 H47           -3.7073     0.0094    -1.2888 H       
  48 H48           -5.4317    -0.1626    -0.8711 H       
  49 H49           -4.2731     1.1441    -3.3759 H       
  50 H50           -5.1968    -0.3752    -3.2953 H       
  51 H51           -5.4578     3.3390    -2.8699 H       
  52 H52           -7.1861     3.3105    -2.4454 H       
  53 H53           -6.7035     2.1847    -0.3264 H       
  54 H54           -5.6634     3.6275    -0.4471 H       
  55 H55            2.2258     5.6841     0.1842 H       
  56 H56            3.7325     1.8615    -1.0725 H       
  57 H57            4.4941     6.6012    -0.1228 H       
  58 H58            8.3039     4.0244    -0.6488 H       
  59 H59            6.9782     3.2487    -1.5599 H       
  60 H60            9.2018     4.4069    -2.7647 H       
  61 H61            7.6057     4.2592    -3.5705 H       
  62 H62            8.7563     6.6648    -2.0473 H       
  63 H63            7.9204     6.6458    -3.6363 H       
  64 H64            5.7811     6.1982    -2.6337 H       
  65 H65            6.5139     7.2893    -1.4180 H       
  66 H66           -7.1538    -0.0636    -1.5569 H       
  67 H67           -8.2631     1.3050    -1.8997 H       
  68 H68           -5.5779     2.9873    -5.3155 H       
  69 H69           -6.6376     2.7790    -7.5273 H       
  70 H70           -9.2358    -0.2591    -5.9774 H       
@<TRIPOS>BOND
   1    1    2 ar
   2    1    7 1
   3    1    6 ar
   4    2    3 ar
   5    2    8 1
   6    3    4 ar
   7    3   40 1
   8    4    5 ar
   9    4   41 1
  10    5    6 ar
  11    5    9 1
  12    6   42 1
  13    7   17 am
  14    7   43 1
  15    8   44 1
  16    8   45 1
  17    8   46 1
  18    9   10 am
  19    9   11 2
  20   10   12 1
  21   10   16 1
  22   12   13 1
  23   12   47 1
  24   12   48 1
  25   13   14 1
  26   13   49 1
  27   13   50 1
  28   14   15 1
  29   14   30 1
  30   14   33 1
  31   15   16 1
  32   15   51 1
  33   15   52 1
  34   16   53 1
  35   16   54 1
  36   17   18 1
  37   17   19 2
  38   18   20 ar
  39   18   21 ar
  40   20   24 ar
  41   20   55 1
  42   21   22 ar
  43   21   56 1
  44   22   23 ar
  45   23   24 ar
  46   23   25 1
  47   24   57 1
  48   25   26 1
  49   25   29 1
  50   26   27 1
  51   26   58 1
  52   26   59 1
  53   27   28 1
  54   27   60 1
  55   27   61 1
  56   28   29 1
  57   28   62 1
  58   28   63 1
  59   29   64 1
  60   29   65 1
  61   30   31 ar
  62   30   34 ar
  63   31   32 1
  64   31   37 ar
  65   32   33 1
  66   33   66 1
  67   33   67 1
  68   34   35 ar
  69   34   68 1
  70   35   36 ar
  71   35   69 1
  72   36   37 ar
  73   36   38 1
  74   37   70 1
  75   38   39 3

#	End of record

