#	Name: ASD06610044
#	Creating user name:	WinNT
#	Creation time:	15. 06. 2019 21:07

#	Modifying user name:	WinNT
#	Modification time:	15. 06. 2019 21:07

#	Program:	/corina/corina34_cracker 3.40 0067  02.08.2006

@<TRIPOS>MOLECULE
ASD06610044
 270  270    0    0    0
SMALL
NO_CHARGES


@<TRIPOS>ATOM
   1 C1            -2.0678    -3.7238    -9.6845 C.2     
   2 O2            -2.2248    -4.9194    -9.5551 O.2     
   3 N3             0.1641    -4.3001   -10.4430 N.am    
   4 C4            -0.7521    -3.1863   -10.1856 C.3     
   5 C5            -0.9807    -2.4042   -11.4806 C.3     
   6 O6            -1.6539    -3.2365   -12.4272 O.3     
   7 C7            -5.4483    -2.4128    -9.2190 C.2     
   8 O8            -5.1847    -1.3755    -9.7894 O.2     
   9 N9            -3.0720    -2.8760    -9.3854 N.am    
  10 C10           -4.3531    -3.3989    -8.9040 C.3     
  11 C11           -4.2800    -3.6138    -7.3909 C.3     
  12 O12           -4.1168    -2.3532    -6.7381 O.3     
  13 C13           -8.9245    -1.9132    -8.2044 C.2     
  14 O14           -8.8540    -2.7642    -7.3431 O.2     
  15 N15           -6.7207    -2.6837    -8.8668 N.am    
  16 C16           -7.7854    -1.7251    -9.1729 C.3     
  17 C17           -8.2858    -1.9572   -10.6000 C.3     
  18 C18           -7.1629    -1.6452   -11.5913 C.3     
  19 C19           -7.6633    -1.8774   -13.0184 C.3     
  20 N20           -6.5881    -1.5787   -13.9675 N.pl3   
  21 C21           -6.8055    -1.7160   -15.3181 C.2     
  22 N22           -5.8489    -1.4501   -16.1626 N.2     
  23 N23           -8.0320    -2.1336   -15.7779 N.pl3   
  24 C24          -12.4085    -0.8289    -7.9816 C.2     
  25 O25          -12.3965    -0.3721    -9.1051 O.2     
  26 N26          -10.0217    -1.1357    -8.2952 N.am    
  27 C27          -11.1291    -1.3186    -7.3537 C.3     
  28 C28          -10.8500    -0.5224    -6.0773 C.3     
  29 C29           -9.6208    -1.1009    -5.3738 C.3     
  30 C30           -9.3459    -0.3167    -4.1166 C.2     
  31 O31          -10.0600     0.6100    -3.8144 O.2     
  32 O32           -8.3078    -0.6475    -3.3326 O.3     
  33 C33          -15.7822    -0.0296    -6.8232 C.2     
  34 O34          -15.4673    -0.1366    -5.6568 O.2     
  35 N35          -13.5660    -0.8985    -7.2948 N.am    
  36 C36          -14.8098    -0.4225    -7.9053 C.3     
  37 C37          -15.4187    -1.5374    -8.7579 C.3     
  38 C38          -14.4864    -1.8502    -9.9300 C.3     
  39 C39          -15.0953    -2.9651   -10.7827 C.3     
  40 C40          -14.1630    -3.2778   -11.9548 C.3     
  41 N41          -14.7477    -4.3483   -12.7734 N.3     
  42 C42          -19.3549     0.7194    -6.6274 C.2     
  43 O43          -19.5493     0.3618    -7.7699 O.2     
  44 N44          -17.0018     0.4408    -7.1515 N.am    
  45 C45          -17.9471     0.8228    -6.0995 C.3     
  46 C46          -17.6705     2.2631    -5.6636 C.3     
  47 C47          -16.2877     2.3424    -5.0135 C.3     
  48 C48          -16.0110     3.7827    -4.5776 C.3     
  49 N49          -14.6870     3.8587    -3.9551 N.pl3   
  50 C50          -14.2178     5.0613    -3.4821 C.2     
  51 N51          -13.0398     5.1289    -2.9282 N.2     
  52 N52          -14.9911     6.1926    -3.5932 N.pl3   
  53 C53          -22.6647     1.8478    -5.5622 C.2     
  54 O54          -22.2070     2.5237    -4.6653 O.2     
  55 N55          -20.3977     1.0243    -5.8299 N.am    
  56 C56          -21.7662     0.9237    -6.3431 C.3     
  57 C57          -22.2622    -0.5160    -6.1944 C.3     
  58 C58          -21.4270    -1.4377    -7.0854 C.3     
  59 C59          -21.9230    -2.8774    -6.9367 C.3     
  60 N60          -21.1233    -3.7600    -7.7898 N.pl3   
  61 C61          -21.3873    -5.1089    -7.8222 C.2     
  62 N62          -20.6758    -5.8941    -8.5812 N.2     
  63 N63          -22.4016    -5.6295    -7.0540 N.pl3   
  64 C64          -26.2684     2.3151    -5.1646 C.2     
  65 O65          -26.5242     1.3036    -5.7829 O.2     
  66 N66          -23.9769     1.9230    -5.8605 N.am    
  67 C67          -24.8504     2.8213    -5.1014 C.3     
  68 C68          -24.7832     4.2265    -5.7027 C.3     
  69 O69          -25.3219     4.2046    -7.0261 O.3     
  70 C70          -29.5839     3.6425    -4.3847 C.2     
  71 O71          -29.1540     4.7616    -4.2012 O.2     
  72 N72          -27.2523     2.9864    -4.5340 N.am    
  73 C73          -28.6308     2.4944    -4.5954 C.3     
  74 C74          -28.8470     1.4450    -3.5032 C.3     
  75 C75          -32.0797     4.5614    -2.5999 C.2     
  76 O76          -31.5338     3.7582    -1.8734 O.2     
  77 N77          -30.9140     3.4257    -4.4000 N.am    
  78 C78          -31.8380     4.5186    -4.0868 C.3     
  79 C79          -33.1650     4.2883    -4.8127 C.3     
  80 C80          -32.9482     4.3913    -6.3005 C.2     
  81 O81          -31.8328     4.5435    -6.7393 O.2     
  82 O82          -33.9942     4.3138    -7.1381 O.3     
  83 C83          -34.6573     5.8898    -0.4492 C.2     
  84 O84          -35.3400     6.1891    -1.4059 O.2     
  85 N85          -32.9024     5.4924    -2.0775 N.am    
  86 C86          -33.2250     5.4659    -0.6487 C.3     
  87 C87          -32.2997     6.4264     0.1010 C.3     
  88 C88          -32.3705     7.8114    -0.5453 C.3     
  89 C89          -33.7583     8.4122    -0.3130 C.3     
  90 C90          -30.8625     5.9058     0.0351 C.3     
  91 C91          -36.8178     6.8221     2.3483 C.2     
  92 O92          -35.8760     6.9782     3.0963 O.2     
  93 N93          -35.1796     5.9364     0.7924 N.am    
  94 C94          -36.6022     6.2334     0.9779 C.3     
  95 C95          -37.4142     4.9437     0.8434 C.3     
  96 C96          -37.2965     4.4207    -0.5651 C.ar    
  97 C97          -36.2810     3.5422    -0.8936 C.ar    
  98 C98          -36.1731     3.0625    -2.1855 C.ar    
  99 C99          -37.0809     3.4608    -3.1488 C.ar    
 100 C100         -38.0970     4.3386    -2.8201 C.ar    
 101 C101         -38.2075     4.8149    -1.5271 C.ar    
 102 C102         -38.4201     6.6358     5.0808 C.2     
 103 O103         -38.3602     5.4836     4.7217 O.2     
 104 N104         -38.0573     7.1751     2.7427 N.am    
 105 C105         -38.2670     7.7474     4.0749 C.3     
 106 C106         -39.5331     8.6064     4.0675 C.3     
 107 C107         -39.6845     9.3034     5.4211 C.3     
 108 C108         -40.8794    10.2576     5.3725 C.3     
 109 C109         -40.7515     7.7167     3.8128 C.3     
 110 O110         -38.6229     6.9255     6.3756 O.3     
 111 C111           1.4963    -4.0994   -10.4048 C.2     
 112 O112           1.9366    -2.9968   -10.1574 O.2     
 113 C113          19.2485    -9.9333   -11.8240 C.3     
 114 C114          18.2916    -8.7701   -11.5551 C.3     
 115 C115          16.8471    -9.2636   -11.6591 C.3     
 116 C116          15.8902    -8.1004   -11.3902 C.3     
 117 C117          14.4457    -8.5938   -11.4942 C.3     
 118 C118          13.4888    -7.4307   -11.2253 C.3     
 119 C119          12.0443    -7.9241   -11.3292 C.3     
 120 C120          11.0874    -6.7609   -11.0604 C.3     
 121 C121           9.6429    -7.2544   -11.1643 C.3     
 122 C122           8.6861    -6.0912   -10.8955 C.3     
 123 C123           7.2416    -6.5846   -10.9994 C.3     
 124 C124           6.2847    -5.4214   -10.7306 C.3     
 125 C125           4.8402    -5.9149   -10.8345 C.3     
 126 C126           3.8833    -4.7517   -10.5657 C.3     
 127 C127           2.4388    -5.2451   -10.6696 C.3     
 128 H128          -0.1880    -5.1820   -10.6409 H       
 129 H129          -0.3194    -2.5261    -9.4340 H       
 130 H130          -1.5903    -1.5252   -11.2714 H       
 131 H131          -0.0203    -2.0912   -11.8903 H       
 132 H132          -1.8320    -2.8047   -13.2739 H       
 133 H133          -2.9465    -1.9198    -9.4889 H       
 134 H134          -4.5662    -4.3479    -9.3960 H       
 135 H135          -5.2003    -4.0852    -7.0461 H       
 136 H136          -3.4321    -4.2572    -7.1559 H       
 137 H137          -4.0628    -2.4134    -5.7745 H       
 138 H138          -6.9316    -3.5133    -8.4105 H       
 139 H139          -7.3972    -0.7104    -9.0846 H       
 140 H140          -8.5917    -2.9973   -10.7131 H       
 141 H141          -9.1364    -1.3049   -10.7975 H       
 142 H142          -6.8570    -0.6052   -11.4782 H       
 143 H143          -6.3123    -2.2976   -11.3939 H       
 144 H144          -7.9692    -2.9175   -13.1315 H       
 145 H145          -8.5139    -1.2250   -13.2158 H       
 146 H146          -5.7227    -1.2840   -13.6431 H       
 147 H147          -6.0023    -1.5470   -17.1155 H       
 148 H148          -8.7439    -2.3314   -15.1495 H       
 149 H149          -8.1854    -2.2305   -16.7308 H       
 150 H150         -10.0782    -0.4551    -8.9840 H       
 151 H151         -11.2264    -2.3761    -7.1082 H       
 152 H152         -10.6648     0.5209    -6.3331 H       
 153 H153         -11.7122    -0.5861    -5.4135 H       
 154 H154          -9.8060    -2.1442    -5.1180 H       
 155 H155          -8.7586    -1.0372    -6.0376 H       
 156 H156          -8.1716    -0.1154    -2.5368 H       
 157 H157         -13.5756    -1.2639    -6.3963 H       
 158 H158         -14.5979     0.4418    -8.5348 H       
 159 H159         -15.5483    -2.4315    -8.1482 H       
 160 H160         -16.3872    -1.2147    -9.1401 H       
 161 H161         -14.3568    -0.9560   -10.5398 H       
 162 H162         -13.5179    -2.1728    -9.5478 H       
 163 H163         -15.2249    -3.8592   -10.1729 H       
 164 H164         -16.0638    -2.6424   -11.1649 H       
 165 H165         -14.0334    -2.3837   -12.5645 H       
 166 H166         -13.1945    -3.6005   -11.5726 H       
 167 H167         -15.6739    -4.0991   -13.0866 H       
 168 H168         -14.1502    -4.5733   -13.5547 H       
 169 H169         -17.2536     0.5265    -8.0843 H       
 170 H170         -17.8294     0.1558    -5.2455 H       
 171 H171         -17.7008     2.9184    -6.5341 H       
 172 H172         -18.4280     2.5773    -4.9456 H       
 173 H173         -16.2573     1.6872    -4.1430 H       
 174 H174         -15.5301     2.0282    -5.7314 H       
 175 H175         -16.0414     4.4380    -5.4481 H       
 176 H176         -16.7686     4.0969    -3.8596 H       
 177 H177         -14.1414     3.0605    -3.8767 H       
 178 H178         -12.7088     5.9774    -2.5945 H       
 179 H179         -15.8678     6.1422    -4.0053 H       
 180 H180         -14.6601     7.0411    -3.2594 H       
 181 H181         -20.2422     1.3102    -4.9162 H       
 182 H182         -21.7812     1.2062    -7.3958 H       
 183 H183         -22.1638    -0.8286    -5.1549 H       
 184 H184         -23.3089    -0.5724    -6.4933 H       
 185 H185         -21.5254    -1.1251    -8.1250 H       
 186 H186         -20.3803    -1.3813    -6.7865 H       
 187 H187         -21.8246    -3.1901    -5.8971 H       
 188 H188         -22.9697    -2.9338    -7.2355 H       
 189 H189         -20.4076    -3.3927    -8.3318 H       
 190 H190         -20.8620    -6.8458    -8.6041 H       
 191 H191         -22.9311    -5.0451    -6.4891 H       
 192 H192         -22.5879    -6.5812    -7.0769 H       
 193 H193         -24.3429     1.3823    -6.5779 H       
 194 H194         -24.5225     2.8546    -4.0624 H       
 195 H195         -25.3624     4.9137    -5.0859 H       
 196 H196         -23.7452     4.5572    -5.7384 H       
 197 H197         -25.3113     5.0640    -7.4693 H       
 198 H198         -27.0477     3.7954    -4.0395 H       
 199 H199         -28.8132     2.0454    -5.5718 H       
 200 H200         -29.8726     1.0789    -3.5489 H       
 201 H201         -28.1576     0.6146    -3.6556 H       
 202 H202         -28.6646     1.8940    -2.5268 H       
 203 H203         -31.2596     2.5460    -4.6185 H       
 204 H204         -31.4053     5.4647    -4.4120 H       
 205 H205         -33.5453     3.2964    -4.5687 H       
 206 H206         -33.8870     5.0418    -4.4977 H       
 207 H207         -33.8056     4.3852    -8.0838 H       
 208 H208         -33.2808     6.1800    -2.6475 H       
 209 H209         -33.0883     4.4552    -0.2640 H       
 210 H210         -32.6139     6.4950     1.1425 H       
 211 H211         -31.6151     8.4591    -0.1003 H       
 212 H212         -32.1877     7.7224    -1.6161 H       
 213 H213         -33.7360     9.4776    -0.5423 H       
 214 H214         -34.4818     7.9164    -0.9601 H       
 215 H215         -34.0458     8.2707     0.7288 H       
 216 H216         -30.5655     5.7899    -1.0072 H       
 217 H217         -30.1962     6.6151     0.5261 H       
 218 H218         -30.8020     4.9414     0.5396 H       
 219 H219         -34.6137     5.7733     1.5631 H       
 220 H220         -36.9261     6.9474     0.2207 H       
 221 H221         -37.0312     4.1987     1.5408 H       
 222 H222         -38.4609     5.1481     1.0688 H       
 223 H223         -35.5717     3.2310    -0.1409 H       
 224 H224         -35.3792     2.3767    -2.4423 H       
 225 H225         -36.9961     3.0866    -4.1583 H       
 226 H226         -38.8061     4.6501    -3.5728 H       
 227 H227         -39.0036     5.4978    -1.2694 H       
 228 H228         -38.8106     7.0503     2.1444 H       
 229 H229         -37.4103     8.3653     4.3438 H       
 230 H230         -39.4592     9.3557     3.2793 H       
 231 H231         -39.8473     8.5565     6.1981 H       
 232 H232         -38.7782     9.8669     5.6430 H       
 233 H233         -40.9873    10.7542     6.3369 H       
 234 H234         -40.7166    11.0045     4.5955 H       
 235 H235         -41.7856     9.6941     5.1506 H       
 236 H236         -40.8254     6.9675     4.6010 H       
 237 H237         -41.6535     8.3287     3.8075 H       
 238 H238         -40.6436     7.2202     2.8485 H       
 239 H239         -38.7151     6.1790     6.9833 H       
 240 H240          20.2776    -9.5818   -11.7499 H       
 241 H241          19.0795   -10.7201   -11.0888 H       
 242 H242          19.0700   -10.3268   -12.8247 H       
 243 H243          18.4700    -8.3767   -10.5544 H       
 244 H244          18.4606    -7.9833   -12.2903 H       
 245 H245          16.6686    -9.6570   -12.6598 H       
 246 H246          16.6781   -10.0504   -10.9239 H       
 247 H247          16.0687    -7.7070   -10.3895 H       
 248 H248          16.0592    -7.3136   -12.1254 H       
 249 H249          14.2673    -8.9873   -12.4949 H       
 250 H250          14.2768    -9.3806   -10.7590 H       
 251 H251          13.6673    -7.0372   -10.2246 H       
 252 H252          13.6578    -6.6439   -11.9605 H       
 253 H253          11.8659    -8.3175   -12.3300 H       
 254 H254          11.8754    -8.7109   -10.5941 H       
 255 H255          11.2659    -6.3675   -10.0597 H       
 256 H256          11.2564    -5.9741   -11.7956 H       
 257 H257           9.4645    -7.6478   -12.1651 H       
 258 H258           9.4740    -8.0412   -10.4292 H       
 259 H259           8.8645    -5.6977    -9.8948 H       
 260 H260           8.8550    -5.3044   -11.6307 H       
 261 H261           7.0631    -6.9780   -12.0002 H       
 262 H262           7.0726    -7.3714   -10.2642 H       
 263 H263           6.4631    -5.0280    -9.7299 H       
 264 H264           6.4536    -4.6346   -11.4658 H       
 265 H265           4.6617    -6.3083   -11.8353 H       
 266 H266           4.6712    -6.7017   -10.0993 H       
 267 H267           4.0617    -4.3583    -9.5650 H       
 268 H268           4.0522    -3.9649   -11.3009 H       
 269 H269           2.2698    -6.0319    -9.9344 H       
 270 H270           2.2603    -5.6386   -11.6704 H       
@<TRIPOS>BOND
   1    1    2 2
   2    1    4 1
   3    1    9 am
   4    3  111 am
   5    3    4 1
   6    3  128 1
   7    4    5 1
   8    4  129 1
   9    5    6 1
  10    5  130 1
  11    5  131 1
  12    6  132 1
  13    7    8 2
  14    7   10 1
  15    7   15 am
  16    9   10 1
  17    9  133 1
  18   10   11 1
  19   10  134 1
  20   11   12 1
  21   11  135 1
  22   11  136 1
  23   12  137 1
  24   13   14 2
  25   13   16 1
  26   13   26 am
  27   15   16 1
  28   15  138 1
  29   16   17 1
  30   16  139 1
  31   17   18 1
  32   17  140 1
  33   17  141 1
  34   18   19 1
  35   18  142 1
  36   18  143 1
  37   19   20 1
  38   19  144 1
  39   19  145 1
  40   20   21 1
  41   20  146 1
  42   21   22 2
  43   21   23 1
  44   22  147 1
  45   23  148 1
  46   23  149 1
  47   24   25 2
  48   24   27 1
  49   24   35 am
  50   26   27 1
  51   26  150 1
  52   27   28 1
  53   27  151 1
  54   28   29 1
  55   28  152 1
  56   28  153 1
  57   29   30 1
  58   29  154 1
  59   29  155 1
  60   30   31 2
  61   30   32 1
  62   32  156 1
  63   33   34 2
  64   33   36 1
  65   33   44 am
  66   35   36 1
  67   35  157 1
  68   36   37 1
  69   36  158 1
  70   37   38 1
  71   37  159 1
  72   37  160 1
  73   38   39 1
  74   38  161 1
  75   38  162 1
  76   39   40 1
  77   39  163 1
  78   39  164 1
  79   40   41 1
  80   40  165 1
  81   40  166 1
  82   41  167 1
  83   41  168 1
  84   42   43 2
  85   42   45 1
  86   42   55 am
  87   44   45 1
  88   44  169 1
  89   45   46 1
  90   45  170 1
  91   46   47 1
  92   46  171 1
  93   46  172 1
  94   47   48 1
  95   47  173 1
  96   47  174 1
  97   48   49 1
  98   48  175 1
  99   48  176 1
 100   49   50 1
 101   49  177 1
 102   50   51 2
 103   50   52 1
 104   51  178 1
 105   52  179 1
 106   52  180 1
 107   53   54 2
 108   53   56 1
 109   53   66 am
 110   55   56 1
 111   55  181 1
 112   56   57 1
 113   56  182 1
 114   57   58 1
 115   57  183 1
 116   57  184 1
 117   58   59 1
 118   58  185 1
 119   58  186 1
 120   59   60 1
 121   59  187 1
 122   59  188 1
 123   60   61 1
 124   60  189 1
 125   61   62 2
 126   61   63 1
 127   62  190 1
 128   63  191 1
 129   63  192 1
 130   64   65 2
 131   64   67 1
 132   64   72 am
 133   66   67 1
 134   66  193 1
 135   67   68 1
 136   67  194 1
 137   68   69 1
 138   68  195 1
 139   68  196 1
 140   69  197 1
 141   70   71 2
 142   70   73 1
 143   70   77 am
 144   72   73 1
 145   72  198 1
 146   73   74 1
 147   73  199 1
 148   74  200 1
 149   74  201 1
 150   74  202 1
 151   75   76 2
 152   75   78 1
 153   75   85 am
 154   77   78 1
 155   77  203 1
 156   78   79 1
 157   78  204 1
 158   79   80 1
 159   79  205 1
 160   79  206 1
 161   80   81 2
 162   80   82 1
 163   82  207 1
 164   83   84 2
 165   83   86 1
 166   83   93 am
 167   85   86 1
 168   85  208 1
 169   86   87 1
 170   86  209 1
 171   87   88 1
 172   87   90 1
 173   87  210 1
 174   88   89 1
 175   88  211 1
 176   88  212 1
 177   89  213 1
 178   89  214 1
 179   89  215 1
 180   90  216 1
 181   90  217 1
 182   90  218 1
 183   91   92 2
 184   91   94 1
 185   91  104 am
 186   93   94 1
 187   93  219 1
 188   94   95 1
 189   94  220 1
 190   95   96 1
 191   95  221 1
 192   95  222 1
 193   96   97 ar
 194   96  101 ar
 195   97   98 ar
 196   97  223 1
 197   98   99 ar
 198   98  224 1
 199   99  100 ar
 200   99  225 1
 201  100  101 ar
 202  100  226 1
 203  101  227 1
 204  102  103 2
 205  102  105 1
 206  102  110 1
 207  104  105 1
 208  104  228 1
 209  105  106 1
 210  105  229 1
 211  106  107 1
 212  106  109 1
 213  106  230 1
 214  107  108 1
 215  107  231 1
 216  107  232 1
 217  108  233 1
 218  108  234 1
 219  108  235 1
 220  109  236 1
 221  109  237 1
 222  109  238 1
 223  110  239 1
 224  111  112 2
 225  111  127 1
 226  113  114 1
 227  113  240 1
 228  113  241 1
 229  113  242 1
 230  114  115 1
 231  114  243 1
 232  114  244 1
 233  115  116 1
 234  115  245 1
 235  115  246 1
 236  116  117 1
 237  116  247 1
 238  116  248 1
 239  117  118 1
 240  117  249 1
 241  117  250 1
 242  118  119 1
 243  118  251 1
 244  118  252 1
 245  119  120 1
 246  119  253 1
 247  119  254 1
 248  120  121 1
 249  120  255 1
 250  120  256 1
 251  121  122 1
 252  121  257 1
 253  121  258 1
 254  122  123 1
 255  122  259 1
 256  122  260 1
 257  123  124 1
 258  123  261 1
 259  123  262 1
 260  124  125 1
 261  124  263 1
 262  124  264 1
 263  125  126 1
 264  125  265 1
 265  125  266 1
 266  126  127 1
 267  126  267 1
 268  126  268 1
 269  127  269 1
 270  127  270 1

#	End of record

