#	Name: ASD01885413
#	Creating user name:	WinNT
#	Creation time:	15. 06. 2019 19:49

#	Modifying user name:	WinNT
#	Modification time:	15. 06. 2019 19:49

#	Program:	/corina/corina34_cracker 3.40 0067  02.08.2006

@<TRIPOS>MOLECULE
ASD01885413
  29   31    0    0    0
SMALL
NO_CHARGES


@<TRIPOS>ATOM
   1 C1            -0.0168     1.3900     0.0097 C.ar    
   2 C2             0.0021    -0.0041     0.0020 C.ar    
   3 N3            -1.1144    -0.7757     0.0171 N.2     
   4 C4            -2.1894    -0.5708    -0.6529 C.2     
   5 C5            -2.3484     0.6305    -1.5475 C.3     
   6 C6            -2.2781     1.8683    -0.6894 C.2     
   7 N7            -1.1823     2.1445     0.0191 N.am    
   8 C8             1.1906     2.0901     0.0019 C.ar    
   9 C9             2.3950     1.4188    -0.0168 C.ar    
  10 C10            2.4174     0.0332    -0.0290 C.ar    
  11 C11            1.2381    -0.6738    -0.0193 C.ar    
  12 C12           -3.2965    -1.5357    -0.5448 C.ar    
  13 N13           -4.4192    -1.3432    -1.2300 N.ar    
  14 N14           -5.4065    -2.1606    -1.1633 N.ar    
  15 C15           -5.3732    -3.2495    -0.4084 C.ar    
  16 C16           -4.2387    -3.5386     0.3487 C.ar    
  17 C17           -3.1688    -2.6650     0.2772 C.ar    
  18 O18           -3.2281     2.6210    -0.6432 O.2     
  19 Br19           4.0175     2.3898    -0.0265 Br      
  20 O20           -6.4428    -4.0822    -0.3721 O.3     
  21 H21           -1.5463     0.6484    -2.2853 H       
  22 H22           -3.3131     0.5876    -2.0530 H       
  23 H23           -1.2011     2.9328     0.5841 H       
  24 H24            1.1816     3.1700     0.0103 H       
  25 H25            3.3614    -0.4913    -0.0461 H       
  26 H26            1.2615    -1.7535    -0.0291 H       
  27 H27           -4.1949    -4.4213     0.9695 H       
  28 H28           -2.2664    -2.8424     0.8434 H       
  29 H29           -6.4187    -4.7827    -1.0383 H       
@<TRIPOS>BOND
   1    1    2 ar
   2    1    8 ar
   3    1    7 1
   4    2    3 1
   5    2   11 ar
   6    3    4 2
   7    4    5 1
   8    4   12 1
   9    5    6 1
  10    5   21 1
  11    5   22 1
  12    6    7 am
  13    6   18 2
  14    7   23 1
  15    8    9 ar
  16    8   24 1
  17    9   10 ar
  18    9   19 1
  19   10   11 ar
  20   10   25 1
  21   11   26 1
  22   12   13 ar
  23   12   17 ar
  24   13   14 ar
  25   14   15 ar
  26   15   16 ar
  27   15   20 1
  28   16   17 ar
  29   16   27 1
  30   17   28 1
  31   20   29 1

#	End of record

