#	Name: ASD05490047
#	Creating user name:	WinNT
#	Creation time:	15. 06. 2019 21:01

#	Modifying user name:	WinNT
#	Modification time:	15. 06. 2019 21:01

#	Program:	/corina/corina34_cracker 3.40 0067  02.08.2006

@<TRIPOS>MOLECULE
ASD05490047
  71   75    0    0    0
SMALL
NO_CHARGES


@<TRIPOS>ATOM
   1 O1            -0.0173     1.4248     0.0099 O.3     
   2 N2             2.7162     5.3699     0.0053 N.am    
   3 N3             2.2880     1.3303    -0.0126 N.ar    
   4 C4             3.4867     1.9104    -0.0211 C.ar    
   5 C5             1.1817     2.0564     0.0018 C.ar    
   6 N6             1.2086     3.3789     0.0091 N.ar    
   7 C7             2.3660     4.0319     0.0015 C.ar    
   8 C8             3.5555     3.3024    -0.0142 C.ar    
   9 N9             4.6434     1.1447    -0.0366 N.pl3   
  10 C10            4.0594     5.4635    -0.0126 C.2     
  11 N11            4.5983     4.2283    -0.0196 N.am    
  12 O12            4.6902     6.5042    -0.0150 O.2     
  13 C13            1.7812     6.4976     0.0199 C.3     
  14 C14            1.4739     6.8769     1.4457 C.ar    
  15 C15            0.4134     6.2806     2.1040 C.ar    
  16 C16            0.0021    -0.0041     0.0020 C.3     
  17 C17           -1.4333    -0.5336     0.0129 C.3     
  18 C18           -1.4126    -2.0635     0.0045 C.3     
  19 C19           -2.8479    -2.5931     0.0153 C.3     
  20 C20            2.2567     7.8158     2.0930 C.ar    
  21 C21            1.9798     8.1669     3.3987 C.ar    
  22 C22            0.9092     7.5736     4.0650 C.ar    
  23 C23            0.1274     6.6240     3.4097 C.ar    
  24 C24            0.6067     7.9468     5.4683 C.ar    
  25 C25            1.6181     7.9458     6.4261 C.ar    
  26 C26           -0.6936     8.3069     5.8343 C.ar    
  27 C27           -0.9672     8.6547     7.1476 C.ar    
  28 C28            0.0426     8.6456     8.0909 C.ar    
  29 C29            1.3317     8.2943     7.7304 C.ar    
  30 C30            2.4256     8.2872     8.7669 C.3     
  31 N31            2.5002     6.9594     9.3910 N.3     
  32 C32            3.7034     6.8389    10.2346 C.3     
  33 C33            1.3100     6.7003    10.2289 C.3     
  34 C34            1.8336     5.8371    11.4038 C.3     
  35 C35            3.2304     6.4638    11.6548 C.3     
  36 O36           -1.6852     8.3163     4.9060 O.3     
  37 C37           -2.9887     8.6948     5.3529 C.3     
  38 H38            4.5841     0.1765    -0.0414 H       
  39 H39            5.5114     1.5775    -0.0427 H       
  40 H40            5.5456     4.0197    -0.0267 H       
  41 H41            2.2297     7.3481    -0.4936 H       
  42 H42            0.8594     6.2120    -0.4868 H       
  43 H43           -0.1920     5.5451     1.5951 H       
  44 H44            0.5123    -0.3556    -0.8948 H       
  45 H45            0.5293    -0.3651     0.8851 H       
  46 H46           -1.9435    -0.1821     0.9097 H       
  47 H47           -1.9605    -0.1726    -0.8702 H       
  48 H48           -0.9024    -2.4150    -0.8923 H       
  49 H49           -0.8854    -2.4246     0.8875 H       
  50 H50           -3.3751    -2.2320    -0.8677 H       
  51 H51           -2.8332    -3.6829     0.0093 H       
  52 H52           -3.3581    -2.2415     0.9121 H       
  53 H53            3.0863     8.2747     1.5758 H       
  54 H54            2.5919     8.8999     3.9032 H       
  55 H55           -0.7037     6.1613     3.9212 H       
  56 H56            2.6253     7.6721     6.1485 H       
  57 H57           -1.9705     8.9334     7.4341 H       
  58 H58           -0.1743     8.9180     9.1132 H       
  59 H59            3.3785     8.5190     8.2911 H       
  60 H60            2.2086     9.0354     9.5293 H       
  61 H61            4.3546     6.0578     9.8422 H       
  62 H62            4.2352     7.7900    10.2600 H       
  63 H63            0.8967     7.6376    10.6014 H       
  64 H64            0.5581     6.1522     9.6610 H       
  65 H65            1.1950     5.9427    12.2808 H       
  66 H66            1.9219     4.7910    11.1107 H       
  67 H67            3.9043     5.7352    12.1055 H       
  68 H68            3.1474     7.3523    12.2806 H       
  69 H69           -3.6845     8.6603     4.5145 H       
  70 H70           -3.3209     8.0057     6.1293 H       
  71 H71           -2.9550     9.7071     5.7556 H       
@<TRIPOS>BOND
   1    1   16 1
   2    1    5 1
   3    2   13 1
   4    2    7 1
   5    2   10 am
   6    3    4 ar
   7    3    5 ar
   8    4    9 1
   9    4    8 ar
  10    5    6 ar
  11    6    7 ar
  12    7    8 ar
  13    8   11 1
  14    9   38 1
  15    9   39 1
  16   10   11 am
  17   10   12 2
  18   11   40 1
  19   13   14 1
  20   13   41 1
  21   13   42 1
  22   14   20 ar
  23   14   15 ar
  24   15   23 ar
  25   15   43 1
  26   16   17 1
  27   16   44 1
  28   16   45 1
  29   17   18 1
  30   17   46 1
  31   17   47 1
  32   18   19 1
  33   18   48 1
  34   18   49 1
  35   19   50 1
  36   19   51 1
  37   19   52 1
  38   20   21 ar
  39   20   53 1
  40   21   22 ar
  41   21   54 1
  42   22   23 ar
  43   22   24 1
  44   23   55 1
  45   24   25 ar
  46   24   26 ar
  47   25   29 ar
  48   25   56 1
  49   26   27 ar
  50   26   36 1
  51   27   28 ar
  52   27   57 1
  53   28   29 ar
  54   28   58 1
  55   29   30 1
  56   30   31 1
  57   30   59 1
  58   30   60 1
  59   31   32 1
  60   31   33 1
  61   32   35 1
  62   32   61 1
  63   32   62 1
  64   33   34 1
  65   33   63 1
  66   33   64 1
  67   34   35 1
  68   34   65 1
  69   34   66 1
  70   35   67 1
  71   35   68 1
  72   36   37 1
  73   37   69 1
  74   37   70 1
  75   37   71 1

#	End of record

