#	Name: ASD01883677
#	Creating user name:	WinNT
#	Creation time:	15. 06. 2019 19:46

#	Modifying user name:	WinNT
#	Modification time:	15. 06. 2019 19:46

#	Program:	/corina/corina34_cracker 3.40 0067  02.08.2006

@<TRIPOS>MOLECULE
ASD01883677
  42   45    0    0    0
SMALL
NO_CHARGES


@<TRIPOS>ATOM
   1 C1             0.0157     1.1469    -1.5433 C.2     
   2 C2             0.0355    -0.0657    -0.8777 C.2     
   3 C3            -1.1801    -0.6161    -0.4053 C.2     
   4 C4            -2.3404     0.0364    -0.6036 C.2     
   5 N5            -2.3696     1.2348    -1.2600 N.pl3   
   6 C6            -1.2141     1.8056    -1.7285 C.2     
   7 C7            -3.3942     2.0829    -1.5854 C.2     
   8 C8            -2.8513     3.1330    -2.2400 C.2     
   9 N9            -1.5313     2.9512    -2.3179 N.2     
  10 Cl10           1.4884     1.8498    -2.1355 Cl      
  11 C11           -4.8546     1.8823    -1.2725 C.3     
  12 C12           -5.5491     1.2350    -2.4723 C.3     
  13 F13           -4.9558    -0.0029    -2.7425 F       
  14 F14           -6.9049     1.0488    -2.1818 F       
  15 F15           -5.4216     2.0670    -3.5897 F       
  16 C16            1.3149    -0.7806    -0.6622 C.ar    
  17 C17            1.8017    -0.9678     0.6317 C.ar    
  18 C18            2.9924    -1.6340     0.8288 C.ar    
  19 C19            3.7074    -2.1182    -0.2590 C.ar    
  20 C20            3.2258    -1.9331    -1.5485 C.ar    
  21 C21            2.0327    -1.2732    -1.7523 C.ar    
  22 O22            4.8806    -2.7738    -0.0613 O.3     
  23 C23            6.0280    -2.0451    -0.0688 C.ar    
  24 C24            5.9717    -0.6622    -0.1655 C.ar    
  25 C25            7.1386     0.0770    -0.1725 C.ar    
  26 C26            8.3640    -0.5614    -0.0835 C.ar    
  27 C27            8.4218    -1.9415     0.0126 C.ar    
  28 C28            7.2563    -2.6830     0.0261 C.ar    
  29 F29            9.5044     0.1629    -0.0909 F       
  30 H30           -1.1765    -1.5624     0.1153 H       
  31 H31           -3.2618    -0.3933    -0.2390 H       
  32 H32           -3.3946     3.9802    -2.6317 H       
  33 H33           -4.9540     1.2341    -0.4019 H       
  34 H34           -5.3169     2.8468    -1.0620 H       
  35 H35            1.2466    -0.5910     1.4780 H       
  36 H36            3.3698    -1.7793     1.8302 H       
  37 H37            3.7846    -2.3102    -2.3923 H       
  38 H38            1.6586    -1.1300    -2.7552 H       
  39 H39            5.0160    -0.1640    -0.2357 H       
  40 H40            7.0950     1.1535    -0.2478 H       
  41 H41            9.3783    -2.4381     0.0813 H       
  42 H42            7.3017    -3.7594     0.1014 H       
@<TRIPOS>BOND
   1    1    2 2
   2    1   10 1
   3    1    6 1
   4    2    3 1
   5    2   16 1
   6    3    4 2
   7    3   30 1
   8    4    5 1
   9    4   31 1
  10    5    6 1
  11    5    7 1
  12    6    9 2
  13    7    8 2
  14    7   11 1
  15    8    9 1
  16    8   32 1
  17   11   12 1
  18   11   33 1
  19   11   34 1
  20   12   13 1
  21   12   14 1
  22   12   15 1
  23   16   17 ar
  24   16   21 ar
  25   17   18 ar
  26   17   35 1
  27   18   19 ar
  28   18   36 1
  29   19   20 ar
  30   19   22 1
  31   20   21 ar
  32   20   37 1
  33   21   38 1
  34   22   23 1
  35   23   24 ar
  36   23   28 ar
  37   24   25 ar
  38   24   39 1
  39   25   26 ar
  40   25   40 1
  41   26   27 ar
  42   26   29 1
  43   27   28 ar
  44   27   41 1
  45   28   42 1

#	End of record

