#	Name: ASD01209084
#	Creating user name:	WinNT
#	Creation time:	15. 06. 2019 19:10

#	Modifying user name:	WinNT
#	Modification time:	15. 06. 2019 19:10

#	Program:	/corina/corina34_cracker 3.40 0067  02.08.2006

@<TRIPOS>MOLECULE
ASD01209084
  39   40    0    0    0
SMALL
NO_CHARGES


@<TRIPOS>ATOM
   1 C1            -0.0162     1.3425     0.0094 C.2     
   2 N2             0.0021    -0.0041     0.0020 N.pl3   
   3 C3             1.2995    -0.4745    -0.0129 C.ar    
   4 C4             2.1555     0.6376    -0.0151 C.ar    
   5 C5             1.2759     1.8230    -0.0003 C.2     
   6 C6            -1.1917    -0.8532     0.0089 C.3     
   7 C7             1.6788     3.1818     0.0031 C.2     
   8 C8             1.8455    -1.7543    -0.0250 C.ar    
   9 C9             3.2134    -1.9184    -0.0389 C.ar    
  10 C10            4.0575    -0.8174    -0.0406 C.ar    
  11 C11            3.5357     0.4579    -0.0296 C.ar    
  12 O12            2.8593     3.4650    -0.0066 O.2     
  13 C13            0.6418     4.2751     0.0189 C.3     
  14 C14            0.3046     4.6374     1.4666 C.3     
  15 C15            1.1903     5.5087    -0.7010 C.3     
  16 C16           -2.0137    -0.5674     1.2672 C.3     
  17 C17            3.7983    -3.3071    -0.0520 C.3     
  18 C18           -2.0369    -0.5548    -1.2311 C.3     
  19 H19           -0.9072     1.9528     0.0171 H       
  20 H20           -0.8922    -1.9012     0.0008 H       
  21 H21            1.1976    -2.6184    -0.0231 H       
  22 H22            5.1279    -0.9605    -0.0513 H       
  23 H23            4.1944     1.3138    -0.0313 H       
  24 H24           -0.2588     3.9290    -0.4882 H       
  25 H25            1.2052     4.9835     1.9738 H       
  26 H26           -0.4454     5.4282     1.4780 H       
  27 H27           -0.0862     3.7586     1.9795 H       
  28 H28            1.4305     5.2507    -1.7324 H       
  29 H29            0.4402     6.2996    -0.6896 H       
  30 H30            2.0909     5.8549    -0.1939 H       
  31 H31           -2.9019    -1.1992     1.2723 H       
  32 H32           -1.4115    -0.7800     2.1506 H       
  33 H33           -2.3132     0.4806     1.2753 H       
  34 H34            3.9296    -3.6365    -1.0827 H       
  35 H35            4.7644    -3.2992     0.4527 H       
  36 H36            3.1241    -3.9902     0.4647 H       
  37 H37           -1.4513    -0.7585    -2.1276 H       
  38 H38           -2.9251    -1.1866    -1.2260 H       
  39 H39           -2.3365     0.4932    -1.2230 H       
@<TRIPOS>BOND
   1    1    2 1
   2    1    5 2
   3    1   19 1
   4    2    3 1
   5    2    6 1
   6    3    4 ar
   7    3    8 ar
   8    4    5 1
   9    4   11 ar
  10    5    7 1
  11    6   16 1
  12    6   18 1
  13    6   20 1
  14    7   12 2
  15    7   13 1
  16    8    9 ar
  17    8   21 1
  18    9   10 ar
  19    9   17 1
  20   10   11 ar
  21   10   22 1
  22   11   23 1
  23   13   14 1
  24   13   15 1
  25   13   24 1
  26   14   25 1
  27   14   26 1
  28   14   27 1
  29   15   28 1
  30   15   29 1
  31   15   30 1
  32   16   31 1
  33   16   32 1
  34   16   33 1
  35   17   34 1
  36   17   35 1
  37   17   36 1
  38   18   37 1
  39   18   38 1
  40   18   39 1

#	End of record

