#	Name: ASD00842828
#	Creating user name:	WinNT
#	Creation time:	15. 06. 2019 18:45

#	Modifying user name:	WinNT
#	Modification time:	15. 06. 2019 18:45

#	Program:	/corina/corina34_cracker 3.40 0067  02.08.2006

@<TRIPOS>MOLECULE
ASD00842828
  79   84    0    0    0
SMALL
NO_CHARGES


@<TRIPOS>ATOM
   1 N1            -0.0051     1.3211     0.0355 N.ar    
   2 C2             0.0089    -0.0012     0.0186 C.ar    
   3 C3             1.2116    -0.6961    -0.0015 C.ar    
   4 C4             2.3994     0.0138    -0.0035 C.ar    
   5 C5             2.3418     1.4008     0.0148 C.ar    
   6 C6             1.1109     2.0254     0.0341 C.ar    
   7 C7             1.2227    -2.2030    -0.0203 C.3     
   8 C8             0.4753    -2.7238    -1.2294 C.2     
   9 N9             2.5989    -2.7050    -0.0122 N.am    
  10 C10            3.4467    -2.3635    -1.0028 C.2     
  11 N11            4.7402    -2.7372    -0.9415 N.am    
  12 O12            3.0445    -1.7184    -1.9517 O.2     
  13 C13            5.2676    -3.4159     0.2500 C.3     
  14 C14            6.4984    -2.6520     0.7484 C.3     
  15 C15            7.5064    -2.5152    -0.3949 C.3     
  16 C16            6.8759    -1.7204    -1.5408 C.3     
  17 C17            5.6481    -2.4789    -2.0674 C.3     
  18 N18            8.7022    -1.8120     0.0884 N.3     
  19 C19            9.7417    -1.7661    -0.9494 C.3     
  20 C20           10.9363    -0.9588    -0.4358 C.3     
  21 N21           11.4506    -1.5783     0.7936 N.3     
  22 C22           10.4111    -1.6242     1.8314 C.3     
  23 C23            9.2165    -2.4314     1.3178 C.3     
  24 H24           11.8173    -2.4998     0.6081 H       
  25 O25            0.7556    -2.5211    -2.3919 O.2     
  26 N26           -0.5572    -3.4524    -0.7728 N.am    
  27 C27            0.4484    -2.7529     1.1556 C.ar    
  28 C28           -0.6018    -3.4897     0.6218 C.ar    
  29 C29            0.6133    -2.6432     2.5179 C.ar    
  30 C30           -0.2747    -3.2723     3.3743 C.ar    
  31 C31           -1.3264    -4.0103     2.8547 C.ar    
  32 C32           -1.4923    -4.1206     1.4874 C.ar    
  33 Cl33          -0.0708    -3.1376     5.0930 Cl      
  34 F34           -2.1935    -4.6246     3.6890 F       
  35 C35           -1.0276    -5.8359    -2.0659 C.ar    
  36 C36           -1.3602    -6.8803    -1.2236 C.ar    
  37 C37           -0.2102    -6.0618    -3.1576 C.ar    
  38 C38            0.2745    -7.3321    -3.4070 C.ar    
  39 C39           -0.0578    -8.3765    -2.5644 C.ar    
  40 C40           -0.8752    -8.1505    -1.4728 C.ar    
  41 H41            0.3208    -9.3690    -2.7593 H       
  42 H42           -1.9988    -6.7038    -0.3707 H       
  43 O43           -1.1626    -0.6856     0.0212 O.3     
  44 C44           -2.3649     0.0864     0.0426 C.3     
  45 C45           -3.5735    -0.8519     0.0424 C.3     
  46 F46           -3.5485    -1.6442    -1.1104 F       
  47 F47           -3.5264    -1.6733     1.1739 F       
  48 S48           -1.6513    -4.2181    -1.7521 S.o2    
  49 O49           -2.8323    -4.3861    -0.9799 O.2     
  50 O50           -1.6269    -3.5305    -2.9955 O.2     
  51 H51            3.3496    -0.4994    -0.0185 H       
  52 H52            3.2502     1.9848     0.0141 H       
  53 H53            1.0606     3.1042     0.0480 H       
  54 H54            2.9001    -3.2832     0.7061 H       
  55 H55            4.5060    -3.4302     1.0297 H       
  56 H56            5.5504    -4.4370    -0.0062 H       
  57 H57            6.1982    -1.6611     1.0892 H       
  58 H58            6.9560    -3.1979     1.5735 H       
  59 H59            7.7875    -3.5060    -0.7518 H       
  60 H60            6.5721    -0.7384    -1.1784 H       
  61 H61            7.6022    -1.6033    -2.3451 H       
  62 H62            5.9645    -3.4222    -2.5124 H       
  63 H63            5.1373    -1.8727    -2.8155 H       
  64 H64           10.0632    -2.7801    -1.1872 H       
  65 H65            9.3405    -1.2920    -1.8452 H       
  66 H66           11.7203    -0.9479    -1.1930 H       
  67 H67           10.6207     0.0627    -0.2238 H       
  68 H68           10.8123    -2.0983     2.7272 H       
  69 H69           10.0896    -0.6102     2.0692 H       
  70 H70            8.4325    -2.4424     2.0749 H       
  71 H71            9.5321    -3.4530     1.1058 H       
  72 H72            1.4345    -2.0674     2.9184 H       
  73 H73           -2.3142    -4.6969     1.0890 H       
  74 H74            0.0495    -5.2459    -3.8158 H       
  75 H75            0.9125    -7.5088    -4.2603 H       
  76 H76           -1.1351    -8.9665    -0.8147 H       
  77 H77           -2.3844     0.7037     0.9408 H       
  78 H78           -2.4016     0.7263    -0.8390 H       
  79 H79           -4.4906    -0.2630     0.0587 H       
@<TRIPOS>BOND
   1    1    2 ar
   2    1    6 ar
   3    2    3 ar
   4    2   43 1
   5    3    4 ar
   6    3    7 1
   7    4    5 ar
   8    4   51 1
   9    5    6 ar
  10    5   52 1
  11    6   53 1
  12    7    8 1
  13    7    9 1
  14    7   27 1
  15    8   25 2
  16    8   26 am
  17    9   10 am
  18    9   54 1
  19   10   11 am
  20   10   12 2
  21   11   13 1
  22   11   17 1
  23   13   14 1
  24   13   55 1
  25   13   56 1
  26   14   15 1
  27   14   57 1
  28   14   58 1
  29   15   16 1
  30   15   18 1
  31   15   59 1
  32   16   17 1
  33   16   60 1
  34   16   61 1
  35   17   62 1
  36   17   63 1
  37   18   19 1
  38   18   23 1
  39   19   20 1
  40   19   64 1
  41   19   65 1
  42   20   21 1
  43   20   66 1
  44   20   67 1
  45   21   22 1
  46   21   24 1
  47   22   23 1
  48   22   68 1
  49   22   69 1
  50   23   70 1
  51   23   71 1
  52   26   48 am
  53   26   28 1
  54   27   28 ar
  55   27   29 ar
  56   28   32 ar
  57   29   30 ar
  58   29   72 1
  59   30   31 ar
  60   30   33 1
  61   31   32 ar
  62   31   34 1
  63   32   73 1
  64   35   36 ar
  65   35   37 ar
  66   35   48 1
  67   36   42 1
  68   36   40 ar
  69   37   38 ar
  70   37   74 1
  71   38   39 ar
  72   38   75 1
  73   39   40 ar
  74   39   41 1
  75   40   76 1
  76   43   44 1
  77   44   45 1
  78   44   77 1
  79   44   78 1
  80   45   46 1
  81   45   47 1
  82   45   79 1
  83   48   49 2
  84   48   50 2

#	End of record

