#	Name: ASD01911010
#	Creating user name:	WinNT
#	Creation time:	15. 06. 2019 19:56

#	Modifying user name:	WinNT
#	Modification time:	15. 06. 2019 19:56

#	Program:	/corina/corina34_cracker 3.40 0067  02.08.2006

@<TRIPOS>MOLECULE
ASD01911010
  55   58    0    0    0
SMALL
NO_CHARGES


@<TRIPOS>ATOM
   1 N1             0.1193     1.4758    -0.2007 N.am    
   2 C2             0.0990     0.0194    -0.2028 C.3     
   3 C3            -1.2292    -0.5056     0.3457 C.3     
   4 N4            -2.3209     0.2443    -0.2981 N.am    
   5 C5            -2.3636     1.6973    -0.0758 C.3     
   6 C6            -0.9680     2.2481    -0.1811 C.2     
   7 C7            -3.2433    -0.3758    -1.0604 C.2     
   8 C8            -4.3993     0.3802    -1.5819 C.ar    
   9 C9            -4.9738     1.3975    -0.8134 C.ar    
  10 C10           -6.0529     2.1064    -1.2951 C.ar    
  11 C11           -6.5781     1.8160    -2.5459 C.ar    
  12 C12           -6.0098     0.7960    -3.3268 C.ar    
  13 C13           -4.9147     0.0837    -2.8429 C.ar    
  14 C14           -6.5501     0.4938    -4.6181 C.1     
  15 O15           -3.1234    -1.5578    -1.3186 O.2     
  16 C16           -6.9930     0.2460    -5.6767 C.1     
  17 C17           -7.5333    -0.0562    -6.9680 C.ar    
  18 N18           -6.9898    -1.0232    -7.7013 N.ar    
  19 C19           -7.4581    -1.3308    -8.8935 C.ar    
  20 C20           -8.5386    -0.6543    -9.4290 C.ar    
  21 C21           -9.1375     0.3633    -8.6978 C.ar    
  22 C22           -8.6318     0.6636    -7.4464 C.ar    
  23 C23            1.4256     2.1388    -0.2152 C.3     
  24 O24           -7.6405     2.5166    -3.0145 O.3     
  25 C25           -8.1679     3.5393    -2.1672 C.3     
  26 O26           -0.8248     3.4499    -0.2600 O.2     
  27 C27            1.8294     2.4839     1.1950 C.ar    
  28 C28            2.4717     1.5436     1.9804 C.ar    
  29 C29            2.8426     1.8614     3.2751 C.ar    
  30 C30            2.5712     3.1178     3.7827 C.ar    
  31 C31            1.9292     4.0571     2.9972 C.ar    
  32 C32            1.5631     3.7420     1.7021 C.ar    
  33 Cl33           2.8118    -0.0346     1.3423 Cl      
  34 H34            0.2328    -0.3398    -1.2232 H       
  35 H35            0.9150    -0.3516     0.4173 H       
  36 H36           -1.3275    -1.5669     0.1176 H       
  37 H37           -1.2664    -0.3557     1.4247 H       
  38 H38           -3.0006     2.1631    -0.8277 H       
  39 H39           -2.7594     1.9030     0.9187 H       
  40 H40           -4.5704     1.6283     0.1615 H       
  41 H41           -6.4917     2.8908    -0.6963 H       
  42 H42           -4.4729    -0.7018    -3.4382 H       
  43 H43           -6.9912    -2.1223    -9.4608 H       
  44 H44           -8.9134    -0.9147   -10.4078 H       
  45 H45           -9.9825     0.9052    -9.0961 H       
  46 H46           -9.0738     1.4487    -6.8509 H       
  47 H47            2.1674     1.4704    -0.6524 H       
  48 H48            1.3635     3.0508    -0.8089 H       
  49 H49           -8.4999     3.0973    -1.2277 H       
  50 H50           -7.3939     4.2801    -1.9667 H       
  51 H51           -9.0123     4.0205    -2.6608 H       
  52 H52            3.3438     1.1276     3.8889 H       
  53 H53            2.8604     3.3658     4.7933 H       
  54 H54            1.7170     5.0387     3.3944 H       
  55 H55            1.0619     4.4763     1.0889 H       
@<TRIPOS>BOND
   1    1    2 1
   2    1   23 1
   3    1    6 am
   4    2    3 1
   5    2   34 1
   6    2   35 1
   7    3    4 1
   8    3   36 1
   9    3   37 1
  10    4    5 1
  11    4    7 am
  12    5    6 1
  13    5   38 1
  14    5   39 1
  15    6   26 2
  16    7    8 1
  17    7   15 2
  18    8    9 ar
  19    8   13 ar
  20    9   10 ar
  21    9   40 1
  22   10   11 ar
  23   10   41 1
  24   11   12 ar
  25   11   24 1
  26   12   13 ar
  27   12   14 1
  28   13   42 1
  29   14   16 3
  30   16   17 1
  31   17   18 ar
  32   17   22 ar
  33   18   19 ar
  34   19   20 ar
  35   19   43 1
  36   20   21 ar
  37   20   44 1
  38   21   22 ar
  39   21   45 1
  40   22   46 1
  41   23   27 1
  42   23   47 1
  43   23   48 1
  44   24   25 1
  45   25   49 1
  46   25   50 1
  47   25   51 1
  48   27   28 ar
  49   27   32 ar
  50   28   29 ar
  51   28   33 1
  52   29   30 ar
  53   29   52 1
  54   30   31 ar
  55   30   53 1
  56   31   32 ar
  57   31   54 1
  58   32   55 1

#	End of record

