#	Name: ASD08178176
#	Creating user name:	WinNT
#	Creation time:	15. 06. 2019 21:18

#	Modifying user name:	WinNT
#	Modification time:	15. 06. 2019 21:18

#	Program:	/corina/corina34_cracker 3.40 0067  02.08.2006

@<TRIPOS>MOLECULE
ASD08178176
  78   81    0    0    0
SMALL
NO_CHARGES


@<TRIPOS>ATOM
   1 C1            -0.0155     1.2947     0.0092 C.2     
   2 N2             0.0021    -0.0041     0.0020 N.2     
   3 N3            -1.1080    -0.6053     0.0094 N.2     
   4 C4            -2.1692     0.1372     0.0235 C.2     
   5 S5            -1.6454     1.8216     0.0350 S.3     
   6 C6            -3.5951    -0.3504     0.0340 C.3     
   7 C7            -4.0644    -0.5229     1.4800 C.3     
   8 C8            -5.5121    -1.0179     1.4907 C.3     
   9 C9            -5.9814    -1.1905     2.9367 C.3     
  10 C10           -7.4073    -1.6780     2.9473 C.2     
  11 N11           -7.7918    -2.9148     2.9447 N.2     
  12 N12           -9.0376    -3.1191     2.9550 N.2     
  13 C13           -9.8187    -2.0813     2.9671 C.2     
  14 S14           -8.8524    -0.6668     2.9729 S.3     
  15 N15          -11.2091    -2.1133     2.9791 N.am    
  16 C16          -11.8559    -3.2957     2.9793 C.2     
  17 C17          -13.3625    -3.3304     2.9924 C.3     
  18 O18          -11.2256    -4.3318     2.9690 O.2     
  19 C19          -13.8320    -4.7624     2.9898 C.ar    
  20 N20            1.1034     2.1206     0.0029 N.am    
  21 C21            2.3386     1.5818    -0.0123 C.2     
  22 C22            3.5511     2.4767    -0.0190 C.3     
  23 O23            2.4745     0.3766    -0.0205 O.2     
  24 C24            4.7989     1.6319    -0.0361 C.ar    
  25 C25            5.3595     1.2513    -1.2410 C.ar    
  26 C26            6.5041     0.4764    -1.2567 C.ar    
  27 C27            7.0884     0.0825    -0.0674 C.ar    
  28 C28            6.5283     0.4638     1.1375 C.ar    
  29 C29            5.3862     1.2424     1.1531 C.ar    
  30 C30          -14.0369    -5.4246     4.1856 C.ar    
  31 C31          -14.4676    -6.7383     4.1833 C.ar    
  32 C32          -14.6938    -7.3893     2.9852 C.ar    
  33 C33          -14.4897    -6.7266     1.7891 C.ar    
  34 C34          -14.0633    -5.4119     1.7914 C.ar    
  35 C35          -14.6900    -7.4607     5.4870 C.3     
  36 N36          -16.0745    -7.2645     5.9240 N.am    
  37 C37          -16.5040    -7.8229     7.0730 C.2     
  38 O38          -15.7430    -8.4891     7.7464 O.2     
  39 O39          -17.7764    -7.6426     7.4746 O.3     
  40 C40          -18.1696    -8.2733     8.7219 C.3     
  41 C41          -17.2993    -7.7379     9.8607 C.3     
  42 C42          -19.6386    -7.9588     9.0115 C.3     
  43 C43          -17.9852    -9.7879     8.6079 C.3     
  44 H44           -4.2315     0.3769    -0.4702 H       
  45 H45           -3.6557    -1.3073    -0.4843 H       
  46 H46           -3.4280    -1.2502     1.9842 H       
  47 H47           -4.0038     0.4340     1.9984 H       
  48 H48           -6.1485    -0.2906     0.9865 H       
  49 H49           -5.5727    -1.9748     0.9724 H       
  50 H50           -5.3450    -1.9177     3.4409 H       
  51 H51           -5.9207    -0.2335     3.4550 H       
  52 H52          -11.7132    -1.2847     2.9874 H       
  53 H53          -13.7297    -2.8292     3.8879 H       
  54 H54          -13.7453    -2.8210     2.1080 H       
  55 H55            0.9948     3.0845     0.0095 H       
  56 H56            3.5296     3.1110    -0.9053 H       
  57 H57            3.5470     3.1008     0.8746 H       
  58 H58            4.9030     1.5591    -2.1701 H       
  59 H59            6.9417     0.1785    -2.1980 H       
  60 H60            7.9822    -0.5236    -0.0796 H       
  61 H61            6.9846     0.1558     2.0666 H       
  62 H62            4.9486     1.5404     2.0945 H       
  63 H63          -13.8601    -4.9159     5.1217 H       
  64 H64          -15.0296    -8.4158     2.9834 H       
  65 H65          -14.6662    -7.2354     0.8529 H       
  66 H66          -13.9039    -4.8943     0.8571 H       
  67 H67          -14.4997    -8.5251     5.3497 H       
  68 H68          -14.0110    -7.0647     6.2422 H       
  69 H69          -16.6820    -6.7327     5.3864 H       
  70 H70          -17.4306    -6.6589     9.9419 H       
  71 H71          -17.5945    -8.2114    10.7971 H       
  72 H72          -16.2527    -7.9620     9.6543 H       
  73 H73          -20.2587    -8.3402     8.2003 H       
  74 H74          -19.9338    -8.4323     9.9479 H       
  75 H75          -19.7700    -6.8798     9.0928 H       
  76 H76          -16.9386   -10.0120     8.4016 H       
  77 H77          -18.2804   -10.2614     9.5443 H       
  78 H78          -18.6052   -10.1693     7.7966 H       
@<TRIPOS>BOND
   1    1    2 2
   2    1   20 1
   3    1    5 1
   4    2    3 1
   5    3    4 2
   6    4    5 1
   7    4    6 1
   8    6    7 1
   9    6   44 1
  10    6   45 1
  11    7    8 1
  12    7   46 1
  13    7   47 1
  14    8    9 1
  15    8   48 1
  16    8   49 1
  17    9   10 1
  18    9   50 1
  19    9   51 1
  20   10   11 2
  21   10   14 1
  22   11   12 1
  23   12   13 2
  24   13   14 1
  25   13   15 1
  26   15   16 am
  27   15   52 1
  28   16   17 1
  29   16   18 2
  30   17   19 1
  31   17   53 1
  32   17   54 1
  33   19   30 ar
  34   19   34 ar
  35   20   21 am
  36   20   55 1
  37   21   22 1
  38   21   23 2
  39   22   24 1
  40   22   56 1
  41   22   57 1
  42   24   25 ar
  43   24   29 ar
  44   25   26 ar
  45   25   58 1
  46   26   27 ar
  47   26   59 1
  48   27   28 ar
  49   27   60 1
  50   28   29 ar
  51   28   61 1
  52   29   62 1
  53   30   31 ar
  54   30   63 1
  55   31   32 ar
  56   31   35 1
  57   32   33 ar
  58   32   64 1
  59   33   34 ar
  60   33   65 1
  61   34   66 1
  62   35   36 1
  63   35   67 1
  64   35   68 1
  65   36   37 am
  66   36   69 1
  67   37   38 2
  68   37   39 1
  69   39   40 1
  70   40   41 1
  71   40   42 1
  72   40   43 1
  73   41   70 1
  74   41   71 1
  75   41   72 1
  76   42   73 1
  77   42   74 1
  78   42   75 1
  79   43   76 1
  80   43   77 1
  81   43   78 1

#	End of record

