#	Name: ASD01911551
#	Creating user name:	WinNT
#	Creation time:	15. 06. 2019 19:58

#	Modifying user name:	WinNT
#	Modification time:	15. 06. 2019 19:58

#	Program:	/corina/corina34_cracker 3.40 0067  02.08.2006

@<TRIPOS>MOLECULE
ASD01911551
  40   42    0    0    0
SMALL
NO_CHARGES


@<TRIPOS>ATOM
   1 N1             0.2377     1.5250     0.7796 N.am    
   2 C2            -0.6988     2.2794     1.6238 C.3     
   3 C3            -2.1253     1.8137     1.3156 C.3     
   4 C4            -2.2097     0.2950     1.4851 C.3     
   5 C5            -1.2563    -0.3838     0.4990 C.3     
   6 C6             0.1763     0.0571     0.7937 C.3     
   7 C7             1.1324     2.1674     0.0029 C.2     
   8 C8             1.0979     3.6286    -0.0995 C.2     
   9 C9             2.1776     4.4663    -0.0218 C.2     
  10 S10           -0.3403     4.6157    -0.3520 S.3     
  11 C11            0.6540     6.0691    -0.3218 C.2     
  12 N12            1.9078     5.7354    -0.1413 N.2     
  13 C13            0.1680     7.4073    -0.4754 C.1     
  14 C14           -0.2304     8.5044    -0.6013 C.1     
  15 C15           -0.7164     9.8427    -0.7549 C.ar    
  16 C16            0.1716    10.9219    -0.7131 C.ar    
  17 C17           -0.3040    12.2076    -0.8623 C.ar    
  18 C18           -1.6565    12.4312    -1.0526 C.ar    
  19 C19           -2.5417    11.3682    -1.0952 C.ar    
  20 C20           -2.0806    10.0763    -0.9533 C.ar    
  21 O21            1.9690     1.5338    -0.6135 O.2     
  22 C22            3.5802     3.9565     0.1877 C.3     
  23 H23           -0.4733     2.0955     2.6742 H       
  24 H24           -0.6077     3.3442     1.4093 H       
  25 H25           -2.8216     2.2956     2.0018 H       
  26 H26           -2.3814     2.0801     0.2901 H       
  27 H27           -1.9295     0.0273     2.5039 H       
  28 H28           -3.2298    -0.0360     1.2903 H       
  29 H29           -1.3341    -1.4659     0.6041 H       
  30 H30           -1.5205    -0.0967    -0.5187 H       
  31 H31            0.8461    -0.3452     0.0337 H       
  32 H32            0.4756    -0.3063     1.7768 H       
  33 H33            1.2271    10.7490    -0.5639 H       
  34 H34            0.3806    13.0422    -0.8302 H       
  35 H35           -2.0231    13.4405    -1.1681 H       
  36 H36           -3.5957    11.5507    -1.2437 H       
  37 H37           -2.7726     9.2478    -0.9867 H       
  38 H38            4.0452     3.7644    -0.7792 H       
  39 H39            4.1613     4.7035     0.7284 H       
  40 H40            3.5485     3.0328     0.7655 H       
@<TRIPOS>BOND
   1    1    2 1
   2    1    7 am
   3    1    6 1
   4    2    3 1
   5    2   23 1
   6    2   24 1
   7    3    4 1
   8    3   25 1
   9    3   26 1
  10    4    5 1
  11    4   27 1
  12    4   28 1
  13    5    6 1
  14    5   29 1
  15    5   30 1
  16    6   31 1
  17    6   32 1
  18    7    8 1
  19    7   21 2
  20    8    9 2
  21    8   10 1
  22    9   22 1
  23    9   12 1
  24   10   11 1
  25   11   12 2
  26   11   13 1
  27   13   14 3
  28   14   15 1
  29   15   16 ar
  30   15   20 ar
  31   16   17 ar
  32   16   33 1
  33   17   18 ar
  34   17   34 1
  35   18   19 ar
  36   18   35 1
  37   19   20 ar
  38   19   36 1
  39   20   37 1
  40   22   38 1
  41   22   39 1
  42   22   40 1

#	End of record

