#	Name: ASD01814050
#	Creating user name:	WinNT
#	Creation time:	15. 06. 2019 19:31

#	Modifying user name:	WinNT
#	Modification time:	15. 06. 2019 19:31

#	Program:	/corina/corina34_cracker 3.40 0067  02.08.2006

@<TRIPOS>MOLECULE
ASD01814050
  56   59    0    0    0
SMALL
NO_CHARGES


@<TRIPOS>ATOM
   1 C1             0.0027     1.3565     0.0475 C.ar    
   2 C2             0.0212    -0.0295     0.0331 C.ar    
   3 C3             1.2149    -0.7188     0.0111 C.ar    
   4 C4             2.4207    -0.0239     0.0025 C.ar    
   5 C5             2.4025     1.3817     0.0166 C.ar    
   6 C6             1.1860     2.0682     0.0394 C.ar    
   7 N7             3.6199    -0.7031    -0.0190 N.pl3   
   8 C8             4.8060    -0.0811    -0.0272 C.2     
   9 C9             4.9150     1.2946    -0.0150 C.2     
  10 C10            3.6861     2.1052     0.0073 C.2     
  11 F11            1.1675     3.4190     0.0530 F       
  12 O12            3.7288     3.3230     0.0184 O.2     
  13 C13            6.2355     1.9396    -0.0236 C.2     
  14 O14            6.3288     3.2844    -0.0115 O.3     
  15 O15            7.2435     1.2605    -0.0416 O.2     
  16 C16            3.5961    -2.1678    -0.0331 C.3     
  17 C17            3.5703    -2.6561    -1.4586 C.ar    
  18 C18            4.7567    -2.8990    -2.1262 C.ar    
  19 C19            4.7364    -3.3465    -3.4327 C.ar    
  20 C20            3.5230    -3.5530    -4.0756 C.ar    
  21 C21            2.3334    -3.3086    -3.4023 C.ar    
  22 C22            2.3603    -2.8657    -2.0943 C.ar    
  23 N23            3.4991    -4.0060    -5.3995 N.am    
  24 C24            4.4535    -3.6097    -6.2647 C.2     
  25 N25            4.4941    -4.1292    -7.5077 N.am    
  26 O26            5.2778    -2.7834    -5.9240 O.2     
  27 C27            5.5315    -3.6985    -8.4481 C.3     
  28 C28            5.7688    -4.7985    -9.4847 C.3     
  29 C29            6.8522    -4.3486   -10.4669 C.3     
  30 C30            6.3997    -3.0698   -11.1747 C.3     
  31 C31            6.1625    -1.9698   -10.1381 C.3     
  32 C32            5.0790    -2.4197    -9.1559 C.3     
  33 H33           -0.9408     1.8817     0.0605 H       
  34 H34           -0.9104    -0.5758     0.0396 H       
  35 H35            1.2144    -1.7987     0.0008 H       
  36 H36            5.7072    -0.6759    -0.0435 H       
  37 H37            7.2187     3.6628    -0.0179 H       
  38 H38            4.4863    -2.5505     0.4660 H       
  39 H39            2.7067    -2.5218     0.4883 H       
  40 H40            5.7000    -2.7382    -1.6257 H       
  41 H41            5.6633    -3.5353    -3.9539 H       
  42 H42            1.3881    -3.4679    -3.8997 H       
  43 H43            1.4355    -2.6758    -1.5699 H       
  44 H44            2.7956    -4.6052    -5.6945 H       
  45 H45            3.8365    -4.7884    -7.7795 H       
  46 H46            6.4566    -3.5053    -7.9051 H       
  47 H47            6.0911    -5.7095    -8.9805 H       
  48 H48            4.8436    -4.9917   -10.0277 H       
  49 H49            7.7773    -4.1554    -9.9239 H       
  50 H50            7.0212    -5.1322   -11.2054 H       
  51 H51            7.1716    -2.7493   -11.8744 H       
  52 H52            5.4746    -3.2630   -11.7177 H       
  53 H53            7.0876    -1.7766    -9.5951 H       
  54 H54            5.8401    -1.0588   -10.6423 H       
  55 H55            4.1539    -2.6129    -9.6989 H       
  56 H56            4.9100    -1.6360    -8.4174 H       
@<TRIPOS>BOND
   1    1    2 ar
   2    1    6 ar
   3    1   33 1
   4    2    3 ar
   5    2   34 1
   6    3    4 ar
   7    3   35 1
   8    4    5 ar
   9    4    7 1
  10    5    6 ar
  11    5   10 1
  12    6   11 1
  13    7    8 1
  14    7   16 1
  15    8    9 2
  16    8   36 1
  17    9   10 1
  18    9   13 1
  19   10   12 2
  20   13   14 1
  21   13   15 2
  22   14   37 1
  23   16   17 1
  24   16   38 1
  25   16   39 1
  26   17   18 ar
  27   17   22 ar
  28   18   19 ar
  29   18   40 1
  30   19   20 ar
  31   19   41 1
  32   20   21 ar
  33   20   23 1
  34   21   22 ar
  35   21   42 1
  36   22   43 1
  37   23   24 am
  38   23   44 1
  39   24   25 am
  40   24   26 2
  41   25   27 1
  42   25   45 1
  43   27   28 1
  44   27   32 1
  45   27   46 1
  46   28   29 1
  47   28   47 1
  48   28   48 1
  49   29   30 1
  50   29   49 1
  51   29   50 1
  52   30   31 1
  53   30   51 1
  54   30   52 1
  55   31   32 1
  56   31   53 1
  57   31   54 1
  58   32   55 1
  59   32   56 1

#	End of record

