#	Name: ASD01200021
#	Creating user name:	WinNT
#	Creation time:	15. 06. 2019 19:08

#	Modifying user name:	WinNT
#	Modification time:	15. 06. 2019 19:08

#	Program:	/corina/corina34_cracker 3.40 0067  02.08.2006

@<TRIPOS>MOLECULE
ASD01200021
  52   55    0    0    0
SMALL
NO_CHARGES


@<TRIPOS>ATOM
   1 C1            -0.0160     1.3320     0.0094 C.2     
   2 C2             0.0021    -0.0041     0.0020 C.2     
   3 S3             1.6649    -0.5762    -0.0169 S.3     
   4 C4             2.2665     1.0766    -0.0138 C.2     
   5 C5             1.2256     1.9335     0.0007 C.2     
   6 C6             3.6924     1.4659    -0.0249 C.2     
   7 C7             4.2518     2.1887    -1.1857 C.2     
   8 N8             3.4620     2.4930    -2.2346 N.am    
   9 C9             3.9879     3.1725    -3.3258 C.2     
  10 C10            4.4803     1.1622     1.0215 C.2     
  11 C11            3.9097     0.4250     2.2055 C.3     
  12 S12           -1.4253    -1.0372     0.0110 S.o2    
  13 N13           -1.8384    -1.3161    -1.5682 N.am    
  14 S14            3.1040     3.6211    -4.7188 S.3     
  15 C15            4.5488     4.3522    -5.4130 C.2     
  16 C16            5.5503     4.1941    -4.5453 C.2     
  17 N17            5.2192     3.5637    -3.4340 N.2     
  18 C18           -1.2878    -2.4656    -2.3035 C.3     
  19 C19           -2.4494    -3.2224    -2.9578 C.3     
  20 O20           -3.2418    -2.3046    -3.7153 O.3     
  21 C21           -3.8569    -1.2783    -2.9329 C.3     
  22 C22           -2.7718    -0.4252    -2.2757 C.3     
  23 O23           -1.0121    -2.2877     0.5446 O.2     
  24 O24           -2.4774    -0.2630     0.5703 O.2     
  25 C25            4.6511    -0.9088     2.4032 C.3     
  26 C26            5.2934    -0.8524     3.8047 C.3     
  27 C27            4.4334     0.1798     4.5754 C.3     
  28 C28            4.1273     1.2453     3.4937 C.3     
  29 O29            5.4246     2.5089    -1.1949 O.2     
  30 H30           -0.9350     1.8993     0.0169 H       
  31 H31            1.3536     3.0058     0.0049 H       
  32 H32            2.5263     2.2375    -2.2273 H       
  33 H33            5.5222     1.4467     1.0134 H       
  34 H34            2.8460     0.2420     2.0538 H       
  35 H35            4.6129     4.8422    -6.3733 H       
  36 H36            6.5497     4.5567    -4.7351 H       
  37 H37           -0.5994    -2.1142    -3.0721 H       
  38 H38           -0.7623    -3.1255    -1.6132 H       
  39 H39           -2.0548    -3.9942    -3.6186 H       
  40 H40           -3.0648    -3.6832    -2.1852 H       
  41 H41           -4.4750    -0.6515    -3.5758 H       
  42 H42           -4.4775    -1.7321    -2.1602 H       
  43 H43           -3.2277     0.2677    -1.5684 H       
  44 H44           -2.2304     0.1326    -3.0397 H       
  45 H45            3.9470    -1.7391     2.3483 H       
  46 H46            5.4236    -1.0228     1.6428 H       
  47 H47            5.2418    -1.8283     4.2875 H       
  48 H48            6.3271    -0.5133     3.7373 H       
  49 H49            3.5131    -0.2780     4.9380 H       
  50 H50            4.9992     0.6163     5.3985 H       
  51 H51            4.9727     1.9233     3.3761 H       
  52 H52            3.2248     1.8003     3.7496 H       
@<TRIPOS>BOND
   1    1    2 2
   2    1    5 1
   3    1   30 1
   4    2    3 1
   5    2   12 1
   6    3    4 1
   7    4    5 2
   8    4    6 1
   9    5   31 1
  10    6    7 1
  11    6   10 2
  12    7    8 am
  13    7   29 2
  14    8    9 1
  15    8   32 1
  16    9   14 1
  17    9   17 2
  18   10   11 1
  19   10   33 1
  20   11   25 1
  21   11   28 1
  22   11   34 1
  23   12   13 am
  24   12   23 2
  25   12   24 2
  26   13   18 1
  27   13   22 1
  28   14   15 1
  29   15   16 2
  30   15   35 1
  31   16   17 1
  32   16   36 1
  33   18   19 1
  34   18   37 1
  35   18   38 1
  36   19   20 1
  37   19   39 1
  38   19   40 1
  39   20   21 1
  40   21   22 1
  41   21   41 1
  42   21   42 1
  43   22   43 1
  44   22   44 1
  45   25   26 1
  46   25   45 1
  47   25   46 1
  48   26   27 1
  49   26   47 1
  50   26   48 1
  51   27   28 1
  52   27   49 1
  53   27   50 1
  54   28   51 1
  55   28   52 1

#	End of record

