#	Name: ASD09740042
#	Creating user name:	WinNT
#	Creation time:	15. 06. 2019 21:22

#	Modifying user name:	WinNT
#	Modification time:	15. 06. 2019 21:22

#	Program:	/corina/corina34_cracker 3.40 0067  02.08.2006

@<TRIPOS>MOLECULE
ASD09740042
  44   47    0    0    0
SMALL
NO_CHARGES


@<TRIPOS>ATOM
   1 N1            -0.0144     1.2085     0.0087 N.2     
   2 O2             0.0021    -0.0041     0.0020 O.3     
   3 C3             1.2060     1.6802    -0.0004 C.2     
   4 N4             2.0461     0.6244    -0.0141 N.2     
   5 C5             1.2702    -0.4440    -0.0125 C.2     
   6 C6             1.7127    -1.8529    -0.0238 C.ar    
   7 C7             1.5947     3.1129     0.0031 C.ar    
   8 C8             2.9402     3.4693    -0.0083 C.ar    
   9 C9             3.2966     4.8029    -0.0055 C.ar    
  10 C10            2.3201     5.7804     0.0089 C.ar    
  11 C11            0.9782     5.4334     0.0205 C.ar    
  12 C12            0.6113     4.1030     0.0120 C.ar    
  13 C13            3.0757    -2.1588    -0.0380 C.ar    
  14 C14            0.7697    -2.8831    -0.0146 C.ar    
  15 C15            1.1866    -4.1963    -0.0247 C.ar    
  16 C16            2.5429    -4.4963    -0.0442 C.ar    
  17 C17            3.4844    -3.4742    -0.0481 C.ar    
  18 O18            2.9498    -5.7916    -0.0541 O.3     
  19 C19            4.3588    -6.0289    -0.0741 C.3     
  20 C20            4.6221    -7.5361    -0.0828 C.3     
  21 C21           -0.2591     6.3055     0.0376 C.3     
  22 C22           -1.4137     5.3772    -0.3954 C.3     
  23 C23           -0.8977     3.9867     0.0279 C.3     
  24 O24           -0.4939     6.8074     1.3548 O.3     
  25 N25            0.1880    -5.2889    -0.0144 N.pl3   
  26 O26           -1.0013    -5.0268     0.0030 O.2     
  27 O27            0.5557    -6.4500    -0.0234 O.2     
  28 H28            3.7030     2.7048    -0.0189 H       
  29 H29            4.3397     5.0825    -0.0144 H       
  30 H30            2.6045     6.8223     0.0117 H       
  31 H31            3.8080    -1.3650    -0.0414 H       
  32 H32           -0.2849    -2.6506     0.0009 H       
  33 H33            4.5379    -3.7114    -0.0632 H       
  34 H34            4.7903    -5.5795    -0.9684 H       
  35 H35            4.8145    -5.5856     0.8113 H       
  36 H36            4.1905    -7.9855     0.8116 H       
  37 H37            4.1664    -7.9794    -0.9682 H       
  38 H38            5.6968    -7.7171    -0.0980 H       
  39 H39           -0.1511     7.1292    -0.6681 H       
  40 H40           -2.3328     5.6290     0.1337 H       
  41 H41           -1.5620     5.4206    -1.4744 H       
  42 H42           -1.2266     3.2286    -0.6829 H       
  43 H43           -1.2473     3.7428     1.0311 H       
  44 H44            0.2199     7.3629     1.6970 H       
@<TRIPOS>BOND
   1    1    2 1
   2    1    3 2
   3    2    5 1
   4    3    4 1
   5    3    7 1
   6    4    5 2
   7    5    6 1
   8    6   13 ar
   9    6   14 ar
  10    7    8 ar
  11    7   12 ar
  12    8    9 ar
  13    8   28 1
  14    9   10 ar
  15    9   29 1
  16   10   11 ar
  17   10   30 1
  18   11   12 ar
  19   11   21 1
  20   12   23 1
  21   13   17 ar
  22   13   31 1
  23   14   15 ar
  24   14   32 1
  25   15   16 ar
  26   15   25 1
  27   16   17 ar
  28   16   18 1
  29   17   33 1
  30   18   19 1
  31   19   20 1
  32   19   34 1
  33   19   35 1
  34   20   36 1
  35   20   37 1
  36   20   38 1
  37   21   22 1
  38   21   24 1
  39   21   39 1
  40   22   23 1
  41   22   40 1
  42   22   41 1
  43   23   42 1
  44   23   43 1
  45   24   44 1
  46   25   26 2
  47   25   27 2

#	End of record

