#	Name: ASD02400003
#	Creating user name:	WinNT
#	Creation time:	15. 06. 2019 20:20

#	Modifying user name:	WinNT
#	Modification time:	15. 06. 2019 20:20

#	Program:	/corina/corina34_cracker 3.40 0067  02.08.2006

@<TRIPOS>MOLECULE
ASD02400003
  42   44    0    0    0
SMALL
NO_CHARGES


@<TRIPOS>ATOM
   1 C1             1.9664     1.2584    -1.3782 C.ar    
   2 C2             2.0212    -0.1056    -1.1697 C.ar    
   3 C3             1.1837    -0.6984    -0.2331 C.ar    
   4 C4             0.2934     0.0833     0.4912 C.ar    
   5 C5             0.2432     1.4483     0.2781 C.ar    
   6 C6             1.0790     2.0350    -0.6558 C.ar    
   7 Cl7           -0.8697     2.4270     1.1822 Cl      
   8 N8             1.2368    -2.0792    -0.0204 N.pl3   
   9 C9             2.4416    -2.7526    -0.1401 C.ar    
  10 N10            3.5513    -2.0585    -0.3468 N.ar    
  11 C11            4.7218    -2.6649    -0.4666 C.ar    
  12 C12            4.7822    -4.0440    -0.3738 C.ar    
  13 C13            3.5955    -4.7491    -0.1555 C.ar    
  14 N14            2.4553    -4.0725    -0.0396 N.ar    
  15 C15            3.6073    -6.2284    -0.0490 C.ar    
  16 C16            4.8174    -6.9203    -0.0621 C.ar    
  17 C17            4.8268    -8.2975     0.0366 C.ar    
  18 C18            3.6391    -8.9946     0.1486 C.ar    
  19 C19            2.4276    -8.3131     0.1630 C.ar    
  20 C20            2.4097    -6.9296     0.0701 C.ar    
  21 N21            1.2288    -9.0214     0.2763 N.pl3   
  22 C22            1.2482   -10.4826     0.3800 C.3     
  23 C23           -0.1854   -11.0050     0.4923 C.3     
  24 N24           -0.1659   -12.4702     0.5963 N.3     
  25 H25            2.6206     1.7199    -2.1031 H       
  26 H26            2.7144    -0.7112    -1.7347 H       
  27 H27           -0.3593    -0.3746     1.2198 H       
  28 H28            1.0385     3.1016    -0.8205 H       
  29 H29            0.4301    -2.5657     0.2109 H       
  30 H30            5.6200    -2.0894    -0.6353 H       
  31 H31            5.7243    -4.5635    -0.4683 H       
  32 H32            5.7478    -6.3790    -0.1498 H       
  33 H33            5.7655    -8.8316     0.0259 H       
  34 H34            3.6520   -10.0718     0.2248 H       
  35 H35            1.4697    -6.3980     0.0810 H       
  36 H36            0.3835    -8.5457     0.2863 H       
  37 H37            1.7199   -10.9036    -0.5079 H       
  38 H38            1.8124   -10.7765     1.2651 H       
  39 H39           -0.6571   -10.5840     1.3802 H       
  40 H40           -0.7496   -10.7111    -0.3928 H       
  41 H41           -1.1017   -12.8399     0.6716 H       
  42 H42            0.3237   -12.8816    -0.1842 H       
@<TRIPOS>BOND
   1    1    2 ar
   2    1    6 ar
   3    1   25 1
   4    2    3 ar
   5    2   26 1
   6    3    4 ar
   7    3    8 1
   8    4    5 ar
   9    4   27 1
  10    5    6 ar
  11    5    7 1
  12    6   28 1
  13    8    9 1
  14    8   29 1
  15    9   10 ar
  16    9   14 ar
  17   10   11 ar
  18   11   12 ar
  19   11   30 1
  20   12   13 ar
  21   12   31 1
  22   13   14 ar
  23   13   15 1
  24   15   16 ar
  25   15   20 ar
  26   16   17 ar
  27   16   32 1
  28   17   18 ar
  29   17   33 1
  30   18   19 ar
  31   18   34 1
  32   19   20 ar
  33   19   21 1
  34   20   35 1
  35   21   22 1
  36   21   36 1
  37   22   23 1
  38   22   37 1
  39   22   38 1
  40   23   24 1
  41   23   39 1
  42   23   40 1
  43   24   41 1
  44   24   42 1

#	End of record

