#	Name: ASD01815808
#	Creating user name:	WinNT
#	Creation time:	15. 06. 2019 19:34

#	Modifying user name:	WinNT
#	Modification time:	15. 06. 2019 19:34

#	Program:	/corina/corina34_cracker 3.40 0067  02.08.2006

@<TRIPOS>MOLECULE
ASD01815808
  50   54    0    0    0
SMALL
NO_CHARGES


@<TRIPOS>ATOM
   1 C1            -0.0915     1.3078    -0.1346 C.ar    
   2 C2            -0.0427    -0.0825    -0.1395 C.ar    
   3 C3             1.1494    -0.7427    -0.1086 C.ar    
   4 C4             2.3483    -0.0143    -0.0712 C.ar    
   5 C5             2.2946     1.4010    -0.0663 C.ar    
   6 C6             1.0547     2.0470    -0.0987 C.ar    
   7 C7             3.5968    -0.6700    -0.0392 C.ar    
   8 C8             4.7554     0.0307    -0.0036 C.ar    
   9 C9             4.7578     1.4343     0.0028 C.ar    
  10 C10            3.5472     2.1501    -0.0274 C.ar    
  11 C11            6.0078     2.2043     0.0403 C.2     
  12 N12            5.9089     3.5540     0.0428 N.am    
  13 C13            4.6934     4.1553     0.0120 C.2     
  14 N14            3.5737     3.4934    -0.0219 N.2     
  15 C15            7.1238     4.3718     0.0795 C.3     
  16 C16            7.1805     5.2615    -1.1661 C.3     
  17 C17            7.1062     5.2599     1.3274 C.3     
  18 C18            8.3398     6.1665     1.3166 C.3     
  19 O19            8.3473     6.9440     0.1176 O.3     
  20 C20            8.4112     6.1680    -1.0807 C.3     
  21 O21            7.1265     4.4398     2.4975 O.3     
  22 O22            7.0916     1.6496     0.0685 O.2     
  23 C23            3.6424    -2.1763    -0.0442 C.3     
  24 C24            3.5367    -2.6867     1.3698 C.ar    
  25 C25            2.3044    -3.0322     1.9008 C.ar    
  26 C26            2.2549    -3.4979     3.2065 C.ar    
  27 C27            3.4272    -3.6014     3.9299 C.ar    
  28 N28            4.5837    -3.2632     3.3932 N.ar    
  29 C29            4.6699    -2.8219     2.1527 C.ar    
  30 Cl30           6.2202    -2.3918     1.5004 Cl      
  31 H31           -1.0482     1.8080    -0.1640 H       
  32 H32           -0.9629    -0.6471    -0.1679 H       
  33 H33            1.1713    -1.8225    -0.1126 H       
  34 H34            1.0047     3.1259    -0.0955 H       
  35 H35            5.6953    -0.5007     0.0208 H       
  36 H36            4.6531     5.2345     0.0158 H       
  37 H37            7.9994     3.7231     0.1044 H       
  38 H38            7.2491     4.6371    -2.0569 H       
  39 H39            6.2801     5.8736    -1.2177 H       
  40 H40            6.2043     5.8720     1.3262 H       
  41 H41            8.3104     6.8306     2.1803 H       
  42 H42            9.2409     5.5546     1.3587 H       
  43 H43            9.3132     5.5562    -1.0699 H       
  44 H44            8.4333     6.8332    -1.9438 H       
  45 H45            7.1169     4.9373     3.3267 H       
  46 H46            2.8108    -2.5630    -0.6332 H       
  47 H47            4.5835    -2.5098    -0.4815 H       
  48 H48            1.4036    -2.9408     1.3121 H       
  49 H49            1.3112    -3.7759     3.6522 H       
  50 H50            3.3964    -3.9632     4.9470 H       
@<TRIPOS>BOND
   1    1    2 ar
   2    1    6 ar
   3    1   31 1
   4    2    3 ar
   5    2   32 1
   6    3    4 ar
   7    3   33 1
   8    4    5 ar
   9    4    7 ar
  10    5    6 ar
  11    5   10 ar
  12    6   34 1
  13    7    8 ar
  14    7   23 1
  15    8    9 ar
  16    8   35 1
  17    9   10 ar
  18    9   11 1
  19   10   14 1
  20   11   12 am
  21   11   22 2
  22   12   13 1
  23   12   15 1
  24   13   14 2
  25   13   36 1
  26   15   16 1
  27   15   17 1
  28   15   37 1
  29   16   20 1
  30   16   38 1
  31   16   39 1
  32   17   18 1
  33   17   21 1
  34   17   40 1
  35   18   19 1
  36   18   41 1
  37   18   42 1
  38   19   20 1
  39   20   43 1
  40   20   44 1
  41   21   45 1
  42   23   24 1
  43   23   46 1
  44   23   47 1
  45   24   25 ar
  46   24   29 ar
  47   25   26 ar
  48   25   48 1
  49   26   27 ar
  50   26   49 1
  51   27   28 ar
  52   27   50 1
  53   28   29 ar
  54   29   30 1

#	End of record

