#	Name: ASD01001264
#	Creating user name:	WinNT
#	Creation time:	15. 06. 2019 18:55

#	Modifying user name:	WinNT
#	Modification time:	15. 06. 2019 18:55

#	Program:	/corina/corina34_cracker 3.40 0067  02.08.2006

@<TRIPOS>MOLECULE
ASD01001264
  48   52    0    0    0
SMALL
NO_CHARGES


@<TRIPOS>ATOM
   1 C1            -0.1568     1.6555     0.6561 C.ar    
   2 C2            -0.0612     0.2744     0.5032 C.ar    
   3 C3            -1.2086    -0.4704     0.3013 C.ar    
   4 C4            -2.4512     0.1468     0.2500 C.ar    
   5 C5            -2.5488     1.5112     0.4118 C.ar    
   6 C6            -1.3976     2.2635     0.6126 C.ar    
   7 O7             1.0981     2.1617     0.8369 O.3     
   8 C8             1.9175     1.0360     1.2036 C.3     
   9 O9             1.2527    -0.0847     0.5911 O.3     
  10 C10           -3.6572    -0.7240     0.0005 C.3     
  11 N11           -4.8816     0.0445     0.2488 N.am    
  12 C12           -4.9435     1.4117    -0.2938 C.3     
  13 C13           -3.8656     2.2424     0.4004 C.3     
  14 C14           -3.6451    -1.1996    -1.4295 C.ar    
  15 C15           -2.5455    -1.8770    -1.9227 C.ar    
  16 C16           -2.5311    -2.3143    -3.2345 C.ar    
  17 C17           -3.6158    -2.0751    -4.0554 C.ar    
  18 C18           -4.7209    -1.3959    -3.5626 C.ar    
  19 C19           -4.7352    -0.9632    -2.2448 C.ar    
  20 O20           -5.7892    -1.1590    -4.3685 O.3     
  21 C21           -5.9091    -0.4802     0.9454 C.2     
  22 C22           -5.8725    -1.8960     1.3609 C.ar    
  23 O23           -6.8662     0.2128     1.2317 O.2     
  24 C24           -6.4213    -2.2807     2.5870 C.ar    
  25 C25           -6.3851    -3.6027     2.9710 C.ar    
  26 C26           -5.8032    -4.5537     2.1410 C.ar    
  27 C27           -5.2562    -4.1751     0.9206 C.ar    
  28 C28           -5.2939    -2.8562     0.5266 C.ar    
  29 O29           -5.7687    -5.8554     2.5234 O.3     
  30 H30           -1.1375    -1.5414     0.1820 H       
  31 H31           -1.4727     3.3344     0.7307 H       
  32 H32            2.9250     1.1491     0.8033 H       
  33 H33            1.9456     0.9194     2.2870 H       
  34 H34           -3.6276    -1.5847     0.6685 H       
  35 H35           -4.7583     1.3909    -1.3678 H       
  36 H36           -5.9251     1.8425    -0.0966 H       
  37 H37           -4.1731     2.4429     1.4268 H       
  38 H38           -3.7459     3.1881    -0.1282 H       
  39 H39           -1.6962    -2.0646    -1.2825 H       
  40 H40           -1.6707    -2.8429    -3.6176 H       
  41 H41           -3.6038    -2.4163    -5.0800 H       
  42 H42           -5.5941    -0.4343    -1.8589 H       
  43 H43           -6.4579    -1.8573    -4.3506 H       
  44 H44           -6.8730    -1.5423     3.2328 H       
  45 H45           -6.8091    -3.9008     3.9185 H       
  46 H46           -4.8049    -4.9170     0.2785 H       
  47 H47           -4.8690    -2.5628    -0.4219 H       
  48 H48           -6.5389    -6.3683     2.2428 H       
@<TRIPOS>BOND
   1    1    2 ar
   2    1    7 1
   3    1    6 ar
   4    2    3 ar
   5    2    9 1
   6    3    4 ar
   7    3   30 1
   8    4    5 ar
   9    4   10 1
  10    5    6 ar
  11    5   13 1
  12    6   31 1
  13    7    8 1
  14    8    9 1
  15    8   32 1
  16    8   33 1
  17   10   11 1
  18   10   14 1
  19   10   34 1
  20   11   12 1
  21   11   21 am
  22   12   13 1
  23   12   35 1
  24   12   36 1
  25   13   37 1
  26   13   38 1
  27   14   15 ar
  28   14   19 ar
  29   15   16 ar
  30   15   39 1
  31   16   17 ar
  32   16   40 1
  33   17   18 ar
  34   17   41 1
  35   18   19 ar
  36   18   20 1
  37   19   42 1
  38   20   43 1
  39   21   22 1
  40   21   23 2
  41   22   24 ar
  42   22   28 ar
  43   24   25 ar
  44   24   44 1
  45   25   26 ar
  46   25   45 1
  47   26   27 ar
  48   26   29 1
  49   27   28 ar
  50   27   46 1
  51   28   47 1
  52   29   48 1

#	End of record

