#	Name: ASD01883434
#	Creating user name:	WinNT
#	Creation time:	15. 06. 2019 19:46

#	Modifying user name:	WinNT
#	Modification time:	15. 06. 2019 19:46

#	Program:	/corina/corina34_cracker 3.40 0067  02.08.2006

@<TRIPOS>MOLECULE
ASD01883434
  46   47    0    0    0
SMALL
NO_CHARGES


@<TRIPOS>ATOM
   1 N1            -0.0161     1.3416     0.0135 N.am    
   2 C2            -0.0057     0.0081    -0.1691 C.2     
   3 C3            -1.2228    -0.7136    -0.1679 C.2     
   4 C4            -2.4239    -0.0108     0.0261 C.2     
   5 C5            -2.3696     1.3830     0.2116 C.2     
   6 C6            -1.1777     2.0190     0.2060 C.2     
   7 O7             1.0510    -0.5772    -0.3357 O.2     
   8 C8            -1.2302    -2.1325    -0.3612 C.1     
   9 N9            -1.2361    -3.2581    -0.5144 N.1     
  10 N10           -3.6309    -0.6732     0.0341 N.pl3   
  11 C11           -4.6460    -0.3917    -0.9901 C.3     
  12 C12           -5.9650    -0.0419    -0.2940 C.3     
  13 C13           -6.3418    -1.1678     0.6717 C.3     
  14 C14           -5.2551    -1.3111     1.7398 C.3     
  15 C15           -3.9258    -1.6793     1.0633 C.3     
  16 C16            1.2513     2.0764     0.0105 C.3     
  17 C17            1.5766     2.5263    -1.4152 C.3     
  18 C18            2.9002     3.2937    -1.4184 C.3     
  19 C19            3.2882     3.6355    -2.8584 C.3     
  20 C20            2.7432     4.5847    -0.6124 C.3     
  21 C21           -7.6763    -0.8380     1.3434 C.3     
  22 F22           -8.6702    -0.7085     0.3674 F       
  23 F23           -8.0209    -1.8671     2.2262 F       
  24 F24           -7.5580     0.3632     2.0508 F       
  25 H25           -3.2803     1.9438     0.3621 H       
  26 H26           -1.1485     3.0890     0.3494 H       
  27 H27           -4.3226     0.4490    -1.6038 H       
  28 H28           -4.7861    -1.2721    -1.6174 H       
  29 H29           -5.8479     0.8891     0.2607 H       
  30 H30           -6.7505     0.0752    -1.0405 H       
  31 H31           -6.4345    -2.1034     0.1202 H       
  32 H32           -5.1447    -0.3681     2.2752 H       
  33 H33           -5.5353    -2.0974     2.4407 H       
  34 H34           -4.0096    -2.6648     0.6052 H       
  35 H35           -3.1276    -1.6858     1.8056 H       
  36 H36            1.1663     2.9500     0.6567 H       
  37 H37            2.0476     1.4289     0.3777 H       
  38 H38            1.6616     1.6527    -2.0615 H       
  39 H39            0.7803     3.1738    -1.7825 H       
  40 H40            3.6787     2.6772    -0.9689 H       
  41 H41            2.5097     4.2520    -3.3078 H       
  42 H42            4.2311     4.1822    -2.8606 H       
  43 H43            3.4000     2.7158    -3.4326 H       
  44 H44            2.4668     4.3412     0.4135 H       
  45 H45            3.6862     5.1314    -0.6147 H       
  46 H46            1.9647     5.2012    -1.0619 H       
@<TRIPOS>BOND
   1    1    2 am
   2    1   16 1
   3    1    6 1
   4    2    3 1
   5    2    7 2
   6    3    4 2
   7    3    8 1
   8    4    5 1
   9    4   10 1
  10    5    6 2
  11    5   25 1
  12    6   26 1
  13    8    9 3
  14   10   11 1
  15   10   15 1
  16   11   12 1
  17   11   27 1
  18   11   28 1
  19   12   13 1
  20   12   29 1
  21   12   30 1
  22   13   14 1
  23   13   21 1
  24   13   31 1
  25   14   15 1
  26   14   32 1
  27   14   33 1
  28   15   34 1
  29   15   35 1
  30   16   17 1
  31   16   36 1
  32   16   37 1
  33   17   18 1
  34   17   38 1
  35   17   39 1
  36   18   19 1
  37   18   20 1
  38   18   40 1
  39   19   41 1
  40   19   42 1
  41   19   43 1
  42   20   44 1
  43   20   45 1
  44   20   46 1
  45   21   22 1
  46   21   23 1
  47   21   24 1

#	End of record

