#	Name: ASD01880004
#	Creating user name:	WinNT
#	Creation time:	15. 06. 2019 19:39

#	Modifying user name:	WinNT
#	Modification time:	15. 06. 2019 19:39

#	Program:	/corina/corina34_cracker 3.40 0067  02.08.2006

@<TRIPOS>MOLECULE
ASD01880004
  42   44    0    0    0
SMALL
NO_CHARGES


@<TRIPOS>ATOM
   1 N1             0.2265    -1.1132    -0.9584 N.pl3   
   2 N2             0.0165     0.1468    -0.7989 N.2     
   3 N3             1.1488     0.7434    -0.6389 N.2     
   4 C4             2.1051    -0.1943    -0.7027 C.2     
   5 N5             1.4931    -1.3447    -0.9035 N.2     
   6 C6             3.5675     0.0210    -0.5731 C.ar    
   7 C7             4.0668     1.3055    -0.3615 C.ar    
   8 C8             5.4241     1.5057    -0.2407 C.ar    
   9 C9             6.2995     0.4229    -0.3301 C.ar    
  10 C10            5.7993    -0.8623    -0.5419 C.ar    
  11 C11            4.4415    -1.0622    -0.6573 C.ar    
  12 C12            7.7598     0.6378    -0.2007 C.ar    
  13 C13            8.4805    -0.0474     0.7811 C.ar    
  14 C14            9.8253     0.1434     0.9079 C.ar    
  15 C15           10.4938     1.0293     0.0527 C.ar    
  16 C16            9.7743     1.7219    -0.9374 C.ar    
  17 C17            8.4114     1.5182    -1.0621 C.ar    
  18 C18            7.6314     2.2556    -2.1199 C.3     
  19 C19            7.4978     1.3735    -3.3629 C.3     
  20 C20            6.7059     2.1221    -4.4368 C.3     
  21 O21           10.4138     2.5816    -1.7688 O.3     
  22 C22           11.9391     1.2341     0.1900 C.2     
  23 C23           12.7079     0.4912     1.2521 C.3     
  24 O24           12.5161     2.0017    -0.5515 O.2     
  25 H25           -0.4610    -1.7838    -1.0944 H       
  26 H26            3.3892     2.1436    -0.2927 H       
  27 H27            5.8108     2.5008    -0.0772 H       
  28 H28            6.4765    -1.7007    -0.6112 H       
  29 H29            4.0542    -2.0570    -0.8208 H       
  30 H30            7.9702    -0.7312     1.4431 H       
  31 H31           10.3758    -0.3893     1.6692 H       
  32 H32            6.6397     2.4974    -1.7377 H       
  33 H33            8.1541     3.1755    -2.3817 H       
  34 H34            8.4895     1.1317    -3.7451 H       
  35 H35            6.9750     0.4535    -3.1010 H       
  36 H36            5.7141     2.3639    -4.0546 H       
  37 H37            7.2286     3.0420    -4.6986 H       
  38 H38            6.6107     1.4937    -5.3223 H       
  39 H39           10.7467     2.1713    -2.5786 H       
  40 H40           13.0648    -0.4557     0.8469 H       
  41 H41           13.5584     1.0927     1.5728 H       
  42 H42           12.0565     0.2990     2.1047 H       
@<TRIPOS>BOND
   1    1    2 1
   2    1    5 1
   3    1   25 1
   4    2    3 2
   5    3    4 1
   6    4    5 2
   7    4    6 1
   8    6    7 ar
   9    6   11 ar
  10    7    8 ar
  11    7   26 1
  12    8    9 ar
  13    8   27 1
  14    9   10 ar
  15    9   12 1
  16   10   11 ar
  17   10   28 1
  18   11   29 1
  19   12   13 ar
  20   12   17 ar
  21   13   14 ar
  22   13   30 1
  23   14   15 ar
  24   14   31 1
  25   15   16 ar
  26   15   22 1
  27   16   17 ar
  28   16   21 1
  29   17   18 1
  30   18   19 1
  31   18   32 1
  32   18   33 1
  33   19   20 1
  34   19   34 1
  35   19   35 1
  36   20   36 1
  37   20   37 1
  38   20   38 1
  39   21   39 1
  40   22   23 1
  41   22   24 2
  42   23   40 1
  43   23   41 1
  44   23   42 1

#	End of record

