#	Name: ASD05430150
#	Creating user name:	WinNT
#	Creation time:	15. 06. 2019 20:59

#	Modifying user name:	WinNT
#	Modification time:	15. 06. 2019 20:59

#	Program:	/corina/corina34_cracker 3.40 0067  02.08.2006

@<TRIPOS>MOLECULE
ASD05430150
  69   74    0    0    0
SMALL
NO_CHARGES


@<TRIPOS>ATOM
   1 C1             0.1570     0.9910    -0.1078 C.ar    
   2 C2             0.1930    -0.1520    -0.9059 C.ar    
   3 C3             1.3845    -0.5535    -1.4963 C.ar    
   4 C4             2.5365     0.1753    -1.2958 C.ar    
   5 C5             2.5078     1.3227    -0.4965 C.ar    
   6 C6             1.3085     1.7272     0.0973 C.ar    
   7 C7             5.0022    -0.0339    -0.1192 C.3     
   8 C8             4.9231     1.4744    -0.1756 C.2     
   9 C9             3.7376     2.1027    -0.2811 C.2     
  10 C10            6.3353    -0.4831     0.4628 C.3     
  11 C11            6.8951     0.5100     1.4764 C.3     
  12 N12            7.1289     1.7914     0.8111 N.pl3   
  13 C13            6.1827     2.2366    -0.1110 C.2     
  14 C14            9.4139     1.7614     1.6287 C.ar    
  15 C15           10.2561     1.0921     0.7603 C.ar    
  16 C16           11.2805     0.3086     1.2568 C.ar    
  17 C17           10.6199     0.8657     3.4932 C.ar    
  18 C18            9.5956     1.6480     2.9944 C.ar    
  19 N19           -0.9755    -0.8975    -1.1125 N.pl3   
  20 C20           -1.4728    -1.3154    -2.3198 C.2     
  21 C21           -2.6052    -1.9966    -2.0604 C.2     
  22 N22           -2.7988    -1.9975    -0.7332 N.2     
  23 C23           -1.8263    -1.3474    -0.1540 C.2     
  24 C24           -3.5007    -2.6449    -3.0845 C.3     
  25 N25            6.4235     3.2522    -0.8718 N.2     
  26 C26           -0.9759     2.5643     1.2690 C.3     
  27 O27           -1.0122     1.3843     0.4639 O.3     
  28 C28            8.3008     2.6201     1.0859 C.3     
  29 C29            8.7465     3.2748    -0.2265 C.3     
  30 O30            7.6494     3.9467    -0.8365 O.3     
  31 S31            6.1426    -2.1213     1.2524 S.3     
  32 C32            7.3655    -3.0245     0.2245 C.3     
  33 C33            8.2787    -1.8771    -0.2826 C.3     
  34 C34            7.3560    -0.7071    -0.6686 C.3     
  35 C35            7.9395     3.7023     2.1053 C.3     
  36 O36            9.0885     4.5095     2.3705 O.3     
  37 C37           11.4635     0.1943     2.6245 C.ar    
  38 F38           12.4646    -0.5714     3.1110 F       
  39 H39            1.4080    -1.4393    -2.1137 H       
  40 H40            3.4616    -0.1397    -1.7555 H       
  41 H41            1.2820     2.6128     0.7149 H       
  42 H42            4.1925    -0.4126     0.5045 H       
  43 H43            4.8966    -0.4366    -1.1266 H       
  44 H44            3.6885     3.1791    -0.2078 H       
  45 H45            6.1795     0.6455     2.2874 H       
  46 H46            7.8349     0.1307     1.8775 H       
  47 H47           10.1133     1.1814    -0.3064 H       
  48 H48           11.9379    -0.2147     0.5783 H       
  49 H49           10.7620     0.7779     4.5602 H       
  50 H50            8.9375     2.1718     3.6718 H       
  51 H51           -1.0395    -1.1334    -3.2921 H       
  52 H52           -1.7200    -1.1874     0.9088 H       
  53 H53           -3.1755    -3.6714    -3.2538 H       
  54 H54           -4.5283    -2.6446    -2.7209 H       
  55 H55           -3.4462    -2.0876    -4.0197 H       
  56 H56           -0.2801     2.4191     2.0954 H       
  57 H57           -0.6482     3.4083     0.6621 H       
  58 H58           -1.9718     2.7656     1.6637 H       
  59 H59            9.5406     3.9926    -0.0208 H       
  60 H60            9.1221     2.5077    -0.9037 H       
  61 H61            7.9320    -3.7334     0.8284 H       
  62 H62            6.8755    -3.5277    -0.6091 H       
  63 H63            8.9614    -1.5674     0.5087 H       
  64 H64            8.8439    -2.2085    -1.1537 H       
  65 H65            6.8307    -0.9451    -1.5935 H       
  66 H66            7.9498     0.1960    -0.8098 H       
  67 H67            7.1412     4.3269     1.7046 H       
  68 H68            7.6041     3.2328     3.0301 H       
  69 H69            8.9324     5.2180     3.0098 H       
@<TRIPOS>BOND
   1    1    2 ar
   2    1    6 ar
   3    1   27 1
   4    2    3 ar
   5    2   19 1
   6    3    4 ar
   7    3   39 1
   8    4    5 ar
   9    4   40 1
  10    5    6 ar
  11    5    9 1
  12    6   41 1
  13    7    8 1
  14    7   10 1
  15    7   42 1
  16    7   43 1
  17    8    9 2
  18    8   13 1
  19    9   44 1
  20   10   11 1
  21   10   31 1
  22   10   34 1
  23   11   12 1
  24   11   45 1
  25   11   46 1
  26   12   13 1
  27   12   28 1
  28   13   25 2
  29   14   15 ar
  30   14   18 ar
  31   14   28 1
  32   15   16 ar
  33   15   47 1
  34   16   37 ar
  35   16   48 1
  36   17   18 ar
  37   17   37 ar
  38   17   49 1
  39   18   50 1
  40   19   20 1
  41   19   23 1
  42   20   21 2
  43   20   51 1
  44   21   22 1
  45   21   24 1
  46   22   23 2
  47   23   52 1
  48   24   53 1
  49   24   54 1
  50   24   55 1
  51   25   30 1
  52   26   27 1
  53   26   56 1
  54   26   57 1
  55   26   58 1
  56   28   29 1
  57   28   35 1
  58   29   30 1
  59   29   59 1
  60   29   60 1
  61   31   32 1
  62   32   33 1
  63   32   61 1
  64   32   62 1
  65   33   34 1
  66   33   63 1
  67   33   64 1
  68   34   65 1
  69   34   66 1
  70   35   36 1
  71   35   67 1
  72   35   68 1
  73   36   69 1
  74   37   38 1

#	End of record

