#	Name: ASD04590227
#	Creating user name:	WinNT
#	Creation time:	15. 06. 2019 20:50

#	Modifying user name:	WinNT
#	Modification time:	15. 06. 2019 20:50

#	Program:	/corina/corina34_cracker 3.40 0067  02.08.2006

@<TRIPOS>MOLECULE
ASD04590227
  47   49    0    0    0
SMALL
NO_CHARGES


@<TRIPOS>ATOM
   1 N1            -0.0169     1.3950     0.0097 N.pl3   
   2 N2             0.0021    -0.0041     0.0020 N.2     
   3 C3             1.2467    -0.4104    -0.0120 C.2     
   4 C4             2.0789     0.7380    -0.0138 C.2     
   5 C5             1.2484     1.8413     0.0000 C.2     
   6 N6             1.6782    -1.7391    -0.0229 N.am    
   7 C7             3.5511     0.7515    -0.0271 C.2     
   8 O8             4.1688    -0.2962    -0.0379 O.2     
   9 N9             4.2143     1.9248    -0.0272 N.am    
  10 C10            5.6792     1.9382    -0.0404 C.3     
  11 C11            6.1718     3.2531    -0.6479 C.3     
  12 C12            7.7017     3.2671    -0.6617 C.3     
  13 C13            8.2258     3.1389     0.7700 C.3     
  14 C14            7.7332     1.8239     1.3775 C.3     
  15 C15            6.2033     1.8099     1.3913 C.3     
  16 C16            0.7763    -2.7406    -0.0197 C.2     
  17 O17           -0.4130    -2.4877    -0.0074 O.2     
  18 C18            1.2320    -4.1435    -0.0312 C.ar    
  19 C19            1.4381    -4.8064    -1.2459 C.ar    
  20 C20            1.8651    -6.1210    -1.2474 C.ar    
  21 C21            2.0881    -6.7812    -0.0527 C.ar    
  22 C22            1.8864    -6.1337     1.1527 C.ar    
  23 C23            1.4660    -4.8171     1.1726 C.ar    
  24 F24            1.2700    -4.1863     2.3511 F       
  25 F25            1.2200    -4.1637    -2.4140 F       
  26 C26            9.7556     3.1528     0.7562 C.3     
  27 O27           10.2441     3.1504     2.0992 O.3     
  28 H28           -0.8125     1.9499     0.0167 H       
  29 H29            1.5606     2.8752     0.0021 H       
  30 H30            2.6270    -1.9408    -0.0327 H       
  31 H31            3.7217     2.7603    -0.0186 H       
  32 H32            6.0448     1.1027    -0.6374 H       
  33 H33            5.7984     3.3445    -1.6679 H       
  34 H34            5.8062     4.0886    -0.0510 H       
  35 H35            8.0673     2.4316    -1.2587 H       
  36 H36            8.0526     4.2039    -1.0945 H       
  37 H37            7.8601     3.9744     1.3670 H       
  38 H38            8.0988     0.9884     0.7806 H       
  39 H39            8.1066     1.7325     2.3975 H       
  40 H40            5.8377     2.6454     1.9883 H       
  41 H41            5.8524     0.8731     1.8241 H       
  42 H42            2.0247    -6.6343    -2.1841 H       
  43 H43            2.4213    -7.8085    -0.0611 H       
  44 H44            2.0622    -6.6569     2.0810 H       
  45 H45           10.1224     2.2688     0.2346 H       
  46 H46           10.1062     4.0487     0.2437 H       
  47 H47           11.2087     3.1589     2.1668 H       
@<TRIPOS>BOND
   1    1    2 1
   2    1    5 1
   3    1   28 1
   4    2    3 2
   5    3    4 1
   6    3    6 1
   7    4    5 2
   8    4    7 1
   9    5   29 1
  10    6   16 am
  11    6   30 1
  12    7    8 2
  13    7    9 am
  14    9   10 1
  15    9   31 1
  16   10   11 1
  17   10   15 1
  18   10   32 1
  19   11   12 1
  20   11   33 1
  21   11   34 1
  22   12   13 1
  23   12   35 1
  24   12   36 1
  25   13   14 1
  26   13   26 1
  27   13   37 1
  28   14   15 1
  29   14   38 1
  30   14   39 1
  31   15   40 1
  32   15   41 1
  33   16   17 2
  34   16   18 1
  35   18   19 ar
  36   18   23 ar
  37   19   20 ar
  38   19   25 1
  39   20   21 ar
  40   20   42 1
  41   21   22 ar
  42   21   43 1
  43   22   23 ar
  44   22   44 1
  45   23   24 1
  46   26   27 1
  47   26   45 1
  48   26   46 1
  49   27   47 1

#	End of record

