#	Name: ASD01890346
#	Creating user name:	WinNT
#	Creation time:	15. 06. 2019 19:50

#	Modifying user name:	WinNT
#	Modification time:	15. 06. 2019 19:50

#	Program:	/corina/corina34_cracker 3.40 0067  02.08.2006

@<TRIPOS>MOLECULE
ASD01890346
  27   29    0    0    0
SMALL
NO_CHARGES


@<TRIPOS>ATOM
   1 C1            -0.0328     1.3236     0.1660 C.2     
   2 C2            -0.0311    -0.0153     0.2003 C.2     
   3 C3             1.2295    -0.6155     0.3408 C.ar    
   4 C4             2.2667     0.3233     0.4198 C.ar    
   5 S5             1.6004     1.9487     0.3123 S.3     
   6 C6             1.5548    -1.9918     0.4077 C.ar    
   7 C7             2.8484    -2.3891     0.5463 C.ar    
   8 C8             3.8734    -1.4529     0.6247 C.ar    
   9 C9             3.5887    -0.1097     0.5622 C.ar    
  10 Cl10           3.2233    -4.0822     0.6268 Cl      
  11 C11           -1.2347     2.1538     0.0198 C.2     
  12 C12           -1.1365     3.6242     0.1389 C.ar    
  13 C13           -0.1342     4.1989     0.9231 C.ar    
  14 C14           -0.0481     5.5714     1.0295 C.ar    
  15 C15           -0.9520     6.3784     0.3612 C.ar    
  16 C16           -1.9477     5.8155    -0.4176 C.ar    
  17 C17           -2.0421     4.4446    -0.5370 C.ar    
  18 O18           -2.3117     1.6318    -0.1994 O.2     
  19 H19           -0.9396    -0.5945     0.1251 H       
  20 H20            0.7702    -2.7317     0.3487 H       
  21 H21            4.8961    -1.7820     0.7351 H       
  22 H22            4.3885     0.6135     0.6228 H       
  23 H23            0.5716     3.5702     1.4455 H       
  24 H24            0.7264     6.0172     1.6360 H       
  25 H25           -0.8803     7.4525     0.4482 H       
  26 H26           -2.6502     6.4511    -0.9363 H       
  27 H27           -2.8169     4.0066    -1.1488 H       
@<TRIPOS>BOND
   1    1    2 2
   2    1    5 1
   3    1   11 1
   4    2    3 1
   5    2   19 1
   6    3    4 ar
   7    3    6 ar
   8    4    5 1
   9    4    9 ar
  10    6    7 ar
  11    6   20 1
  12    7    8 ar
  13    7   10 1
  14    8    9 ar
  15    8   21 1
  16    9   22 1
  17   11   12 1
  18   11   18 2
  19   12   13 ar
  20   12   17 ar
  21   13   14 ar
  22   13   23 1
  23   14   15 ar
  24   14   24 1
  25   15   16 ar
  26   15   25 1
  27   16   17 ar
  28   16   26 1
  29   17   27 1

#	End of record

