#	Name: ASD01882379
#	Creating user name:	WinNT
#	Creation time:	15. 06. 2019 19:44

#	Modifying user name:	WinNT
#	Modification time:	15. 06. 2019 19:44

#	Program:	/corina/corina34_cracker 3.40 0067  02.08.2006

@<TRIPOS>MOLECULE
ASD01882379
  55   59    0    0    0
SMALL
NO_CHARGES


@<TRIPOS>ATOM
   1 C1             1.1480     1.1848     0.9407 C.2     
   2 C2             1.4299    -0.1903     0.8757 C.2     
   3 C3             0.9149    -0.9285    -0.1551 C.2     
   4 C4             0.1127    -0.2979    -1.1311 C.2     
   5 C5            -0.1448     1.0220    -1.0492 C.2     
   6 N6             0.3639     1.7670    -0.0254 N.pl3   
   7 N7             0.9670     3.2578     1.4077 N.2     
   8 N8             1.4834     2.1433     1.7908 N.2     
   9 C9             0.2770     3.0859     0.3112 C.2     
  10 C10            2.2888    -0.8438     1.9275 C.3     
  11 F11            3.6186    -0.8696     1.4937 F       
  12 F12            2.2011    -0.1163     3.1192 F       
  13 F13            1.8441    -2.1521     2.1460 F       
  14 N14            1.1805    -2.2918    -0.2412 N.pl3   
  15 C15            2.5470    -2.7745    -0.4830 C.3     
  16 C16            2.5313    -3.7138    -1.6930 C.3     
  17 C17            1.5048    -4.8244    -1.4583 C.3     
  18 C18            0.1116    -4.2097    -1.3059 C.3     
  19 C19            0.1008    -3.2761    -0.0859 C.3     
  20 O20            1.5104    -5.7208    -2.5712 O.3     
  21 C21            0.7522    -9.2452    -3.0617 C.ar    
  22 C22            1.1763    -7.9614    -3.3379 C.ar    
  23 C23            1.1031    -6.9946    -2.3385 C.ar    
  24 C24            0.6015    -7.3679    -1.0938 C.ar    
  25 C25            0.1983    -8.6723    -0.8969 C.ar    
  26 N26            0.2829    -9.5604    -1.8695 N.ar    
  27 C27            0.8207   -10.2989    -4.1370 C.3     
  28 C28           -0.4784     4.1501    -0.4425 C.3     
  29 C29           -1.9108     4.2320     0.0891 C.3     
  30 C30           -2.8093     5.3374    -0.4691 C.3     
  31 C31           -3.0440     3.8817    -0.8773 C.3     
  32 H32           -0.2958    -0.8759    -1.9468 H       
  33 H33           -0.7592     1.4949    -1.8010 H       
  34 H34            3.2030    -1.9280    -0.6861 H       
  35 H35            2.9044    -3.3142     0.3940 H       
  36 H36            2.2609    -3.1514    -2.5867 H       
  37 H37            3.5197    -4.1540    -1.8248 H       
  38 H38            1.7619    -5.3707    -0.5509 H       
  39 H39           -0.1360    -3.6426    -2.2032 H       
  40 H40           -0.6223    -5.0027    -1.1621 H       
  41 H41            0.2628    -3.8559     0.8228 H       
  42 H42           -0.8578    -2.7607    -0.0269 H       
  43 H43            1.5598    -7.7100    -4.3157 H       
  44 H44            0.5297    -6.6460    -0.2937 H       
  45 H45           -0.1918    -8.9705     0.0650 H       
  46 H46            1.7869   -10.8013    -4.0923 H       
  47 H47            0.0248   -11.0275    -3.9828 H       
  48 H48            0.6998    -9.8299    -5.1135 H       
  49 H49            0.0154     5.1121    -0.3056 H       
  50 H50           -0.4982     3.8995    -1.5031 H       
  51 H51           -2.0399     3.9594     1.1365 H       
  52 H52           -3.5298     5.7918     0.2110 H       
  53 H53           -2.3800     6.0064    -1.2150 H       
  54 H54           -2.7691     3.5929    -1.8918 H       
  55 H55           -3.9189     3.3784    -0.4658 H       
@<TRIPOS>BOND
   1    1    2 1
   2    1    6 1
   3    1    8 2
   4    2    3 2
   5    2   10 1
   6    3    4 1
   7    3   14 1
   8    4    5 2
   9    4   32 1
  10    5    6 1
  11    5   33 1
  12    6    9 1
  13    7    8 1
  14    7    9 2
  15    9   28 1
  16   10   11 1
  17   10   12 1
  18   10   13 1
  19   14   15 1
  20   14   19 1
  21   15   16 1
  22   15   34 1
  23   15   35 1
  24   16   17 1
  25   16   36 1
  26   16   37 1
  27   17   18 1
  28   17   20 1
  29   17   38 1
  30   18   19 1
  31   18   39 1
  32   18   40 1
  33   19   41 1
  34   19   42 1
  35   20   23 1
  36   21   22 ar
  37   21   26 ar
  38   21   27 1
  39   22   23 ar
  40   22   43 1
  41   23   24 ar
  42   24   25 ar
  43   24   44 1
  44   25   26 ar
  45   25   45 1
  46   27   46 1
  47   27   47 1
  48   27   48 1
  49   28   29 1
  50   28   49 1
  51   28   50 1
  52   29   30 1
  53   29   31 1
  54   29   51 1
  55   30   31 1
  56   30   52 1
  57   30   53 1
  58   31   54 1
  59   31   55 1

#	End of record

