#	Name: ASD03430948
#	Creating user name:	WinNT
#	Creation time:	15. 06. 2019 20:41

#	Modifying user name:	WinNT
#	Modification time:	15. 06. 2019 20:41

#	Program:	/corina/corina34_cracker 3.40 0067  02.08.2006

@<TRIPOS>MOLECULE
ASD03430948
  52   57    0    0    0
SMALL
NO_CHARGES


@<TRIPOS>ATOM
   1 C1            -0.0162     1.3436     0.0094 C.2     
   2 N2             0.0021    -0.0041     0.0020 N.am    
   3 O3             1.0346     1.9695     0.0028 O.co2   
   4 O4            -1.0836     1.9406     0.0177 O.co2   
   5 C5             1.2806    -0.7192    -0.0140 C.3     
   6 C6             1.0932    -2.1124     0.5899 C.3     
   7 C7             0.7211    -1.9816     2.0682 C.3     
   8 O8             3.2029    -8.5101     0.3623 O.3     
   9 C9             3.3574    -9.9213     0.6027 C.3     
  10 O10            3.5277   -10.0087     2.0297 O.3     
  11 C11            2.8819    -8.9202     2.5426 C.ar    
  12 C12            2.6834    -7.9987     1.5170 C.ar    
  13 C13            2.4393    -8.6370     3.8222 C.ar    
  14 C14            1.7963    -7.4335     4.0956 C.ar    
  15 C15            1.6111    -6.5174     3.0647 C.ar    
  16 C16            2.0458    -6.7994     1.7865 C.ar    
  17 O17            1.2740    -6.9707     5.2675 O.3     
  18 C18            0.9238    -5.3230     3.6706 C.3     
  19 C19            1.0999    -5.5434     5.1792 C.3     
  20 N20            0.5418    -3.3156     2.6465 N.am    
  21 C21            1.5332    -4.0271     3.2191 C.2     
  22 C22           -0.5226    -5.2390     3.2824 C.ar    
  23 C23           -1.5954    -6.0914     3.4189 C.ar    
  24 C24           -2.8412    -5.7186     2.9467 C.ar    
  25 C25           -3.0062    -4.4883     2.3367 C.ar    
  26 C26           -1.9345    -3.6313     2.1967 C.ar    
  27 C27           -0.6769    -3.9982     2.6696 C.ar    
  28 O28            2.6906    -3.6870     3.3453 O.2     
  29 C29            1.7733    -0.8507    -1.4565 C.3     
  30 C30            2.0225     0.4405    -2.2384 C.3     
  31 C31            3.2050    -0.4030    -1.7576 C.3     
  32 H32           -0.8313    -0.5005     0.0073 H       
  33 H33            2.0142    -0.1651     0.5714 H       
  34 H34            0.2967    -2.6342     0.0596 H       
  35 H35            2.0214    -2.6764     0.4974 H       
  36 H36            1.5177    -1.4598     2.5986 H       
  37 H37           -0.2070    -1.4177     2.1607 H       
  38 H38            2.4649   -10.4631     0.2897 H       
  39 H39            4.2388   -10.3033     0.0877 H       
  40 H40            2.5939    -9.3547     4.6144 H       
  41 H41            1.8888    -6.0829     0.9938 H       
  42 H42            0.2096    -5.2276     5.7231 H       
  43 H43            1.9841    -5.0221     5.5459 H       
  44 H44           -1.4643    -7.0517     3.8954 H       
  45 H45           -3.6831    -6.3865     3.0544 H       
  46 H46           -3.9787    -4.1973     1.9679 H       
  47 H47           -2.0711    -2.6725     1.7188 H       
  48 H48            1.3867    -1.7071    -2.0091 H       
  49 H49            1.8003     0.4336    -3.3055 H       
  50 H50            1.8355     1.3838    -1.7252 H       
  51 H51            3.7959    -0.0147    -0.9280 H       
  52 H52            3.7607    -0.9648    -2.5084 H       
@<TRIPOS>BOND
   1    1    2 am
   2    1    3 ar
   3    1    4 ar
   4    2    5 1
   5    2   32 1
   6    5    6 1
   7    5   29 1
   8    5   33 1
   9    6    7 1
  10    6   34 1
  11    6   35 1
  12    7   20 1
  13    7   36 1
  14    7   37 1
  15    8    9 1
  16    8   12 1
  17    9   10 1
  18    9   38 1
  19    9   39 1
  20   10   11 1
  21   11   12 ar
  22   11   13 ar
  23   12   16 ar
  24   13   14 ar
  25   13   40 1
  26   14   15 ar
  27   14   17 1
  28   15   16 ar
  29   15   18 1
  30   16   41 1
  31   17   19 1
  32   18   19 1
  33   18   21 1
  34   18   22 1
  35   19   42 1
  36   19   43 1
  37   20   21 am
  38   20   27 1
  39   21   28 2
  40   22   23 ar
  41   22   27 ar
  42   23   24 ar
  43   23   44 1
  44   24   25 ar
  45   24   45 1
  46   25   26 ar
  47   25   46 1
  48   26   27 ar
  49   26   47 1
  50   29   30 1
  51   29   31 1
  52   29   48 1
  53   30   31 1
  54   30   49 1
  55   30   50 1
  56   31   51 1
  57   31   52 1

#	End of record

