#	Name: ASD01940735
#	Creating user name:	WinNT
#	Creation time:	15. 06. 2019 20:13

#	Modifying user name:	WinNT
#	Modification time:	15. 06. 2019 20:13

#	Program:	/corina/corina34_cracker 3.40 0067  02.08.2006

@<TRIPOS>MOLECULE
ASD01940735
  53   54    0    0    0
SMALL
NO_CHARGES


@<TRIPOS>ATOM
   1 C1            -0.6702     1.3394    -0.8316 C.ar    
   2 C2            -0.3465     0.8613     0.4285 C.ar    
   3 C3            -1.3236     0.7563     1.4044 C.ar    
   4 C4            -2.6283     1.1284     1.1255 C.ar    
   5 C5            -2.9600     1.6085    -0.1356 C.ar    
   6 C6            -1.9774     1.7199    -1.1157 C.ar    
   7 N7            -2.3079     2.2046    -2.3918 N.am    
   8 S8            -2.1268     1.2317    -3.7195 S.o2    
   9 O9            -2.6197     2.0150    -4.7978 O.2     
  10 O10           -0.7664     0.8239    -3.6722 O.2     
  11 F11           -1.0036     0.2895     2.6311 F       
  12 F12           -3.5788     1.0242     2.0798 F       
  13 N13           -4.2803     1.9845    -0.4190 N.pl3   
  14 C14           -5.2204     1.0155    -0.7825 C.ar    
  15 C15           -6.4917     1.3987    -1.1988 C.ar    
  16 C16           -4.8861    -0.3310    -0.7344 C.ar    
  17 C17           -5.8172    -1.2863    -1.0947 C.ar    
  18 C18           -7.0811    -0.9034    -1.5035 C.ar    
  19 C19           -7.4178     0.4373    -1.5577 C.ar    
  20 F20           -6.8204     2.7080    -1.2518 F       
  21 C21           -8.0928    -1.9489    -1.8964 C.3     
  22 C22           -3.2249    -0.1768    -3.4019 C.3     
  23 C23           -3.2692    -1.0778    -4.6376 C.3     
  24 O24            0.2915     1.4416    -1.7886 O.3     
  25 C25            1.6135     1.0385    -1.4253 C.3     
  26 C26           -4.1954    -2.2658    -4.3696 C.3     
  27 C27           -4.2396    -3.1669    -5.6054 C.3     
  28 O28           -2.9479    -3.7368    -5.8258 O.3     
  29 C29           -5.2598    -4.2855    -5.3846 C.3     
  30 O30           -5.3863    -5.0577    -6.5803 O.3     
  31 H31            0.6696     0.5699     0.6497 H       
  32 H32           -2.6422     3.1092    -2.4954 H       
  33 H33           -4.5418     2.9169    -0.3629 H       
  34 H34           -3.8988    -0.6317    -0.4160 H       
  35 H35           -5.5570    -2.3338    -1.0573 H       
  36 H36           -8.4063     0.7329    -1.8771 H       
  37 H37           -8.6655    -2.2483    -1.0186 H       
  38 H38           -8.7673    -1.5377    -2.6474 H       
  39 H39           -7.5774    -2.8170    -2.3073 H       
  40 H40           -2.8498    -0.7453    -2.5509 H       
  41 H41           -4.2284     0.1874    -3.1816 H       
  42 H42           -3.6443    -0.5093    -5.4886 H       
  43 H43           -2.2657    -1.4420    -4.8579 H       
  44 H44            1.9633     1.6482    -0.5923 H       
  45 H45            1.6051    -0.0106    -1.1294 H       
  46 H46            2.2805     1.1703    -2.2773 H       
  47 H47           -3.8202    -2.8343    -3.5187 H       
  48 H48           -5.1989    -1.9016    -4.1494 H       
  49 H49           -4.5297    -2.5771    -6.4749 H       
  50 H50           -2.6254    -4.2761    -5.0908 H       
  51 H51           -4.9238    -4.9283    -4.5709 H       
  52 H52           -6.2261    -3.8508    -5.1288 H       
  53 H53           -6.0182    -5.7865    -6.5129 H       
@<TRIPOS>BOND
   1    1    2 ar
   2    1   24 1
   3    1    6 ar
   4    2    3 ar
   5    2   31 1
   6    3    4 ar
   7    3   11 1
   8    4    5 ar
   9    4   12 1
  10    5    6 ar
  11    5   13 1
  12    6    7 1
  13    7    8 am
  14    7   32 1
  15    8    9 2
  16    8   10 2
  17    8   22 1
  18   13   14 1
  19   13   33 1
  20   14   15 ar
  21   14   16 ar
  22   15   20 1
  23   15   19 ar
  24   16   17 ar
  25   16   34 1
  26   17   18 ar
  27   17   35 1
  28   18   19 ar
  29   18   21 1
  30   19   36 1
  31   21   37 1
  32   21   38 1
  33   21   39 1
  34   22   23 1
  35   22   40 1
  36   22   41 1
  37   23   26 1
  38   23   42 1
  39   23   43 1
  40   24   25 1
  41   25   44 1
  42   25   45 1
  43   25   46 1
  44   26   27 1
  45   26   47 1
  46   26   48 1
  47   27   28 1
  48   27   29 1
  49   27   49 1
  50   28   50 1
  51   29   30 1
  52   29   51 1
  53   29   52 1
  54   30   53 1

#	End of record

