#	Name: ASD06170390
#	Creating user name:	WinNT
#	Creation time:	15. 06. 2019 21:05

#	Modifying user name:	WinNT
#	Modification time:	15. 06. 2019 21:05

#	Program:	/corina/corina34_cracker 3.40 0067  02.08.2006

@<TRIPOS>MOLECULE
ASD06170390
  65   69    0    0    0
SMALL
NO_CHARGES


@<TRIPOS>ATOM
   1 N1             0.4143     1.9712     0.2876 N.am    
   2 N2             0.1692     3.1842    -0.3628 N.pl3   
   3 C3             1.3350     3.7920    -0.6547 C.2     
   4 C4             2.3695     2.9954    -0.2044 C.2     
   5 C5             1.7485     1.8104     0.4083 C.2     
   6 C6             3.8061     3.2755    -0.3157 C.2     
   7 O7             4.1866     4.3004    -0.8502 O.2     
   8 N8             4.7038     2.3977     0.1742 N.am    
   9 C9             6.0731     2.6105    -0.0274 C.ar    
  10 C10            6.5833     3.9018    -0.0223 C.ar    
  11 C11            8.7823     3.0287    -0.4264 C.ar    
  12 C12            8.2726     1.7390    -0.4252 C.ar    
  13 C13            6.9220     1.5296    -0.2267 C.ar    
  14 O14           10.1126     3.2339    -0.6224 O.3     
  15 N15           12.4276     3.7276     2.6658 N.ar    
  16 C16           13.0412     3.6756     1.4860 C.ar    
  17 C17           12.2781     3.5065     0.3352 C.ar    
  18 C18           10.8985     3.3989     0.4693 C.ar    
  19 N19           10.3610     3.4606     1.6842 N.ar    
  20 C20           11.1174     3.6212     2.7512 C.ar    
  21 O21            2.3249     0.8704     0.9230 O.2     
  22 C22           -0.5603     1.0771     0.7425 C.ar    
  23 C23           -0.3760    -0.2908     0.5886 C.ar    
  24 C24           -1.3401    -1.1710     1.0392 C.ar    
  25 C25            7.9355     4.1108    -0.2214 C.ar    
  26 C26            1.4854     5.1177    -1.3554 C.3     
  27 C27           -1.1587     3.7150    -0.6806 C.3     
  28 C28           -2.4880    -0.6917     1.6432 C.ar    
  29 C29           -2.6748     0.6697     1.7976 C.ar    
  30 C30           -1.7119     1.5551     1.3543 C.ar    
  31 N31           14.4249     3.7892     1.4048 N.am    
  32 C32           15.1643     3.8379     2.5305 C.2     
  33 N33           16.4949     4.0386     2.4547 N.am    
  34 O34           14.6311     3.7008     3.6144 O.2     
  35 C35           17.4167     4.1133     3.5976 C.3     
  36 C36           18.8276     4.3789     3.0316 C.3     
  37 C37           18.5329     5.0017     1.6415 C.3     
  38 C38           17.2680     4.2132     1.2116 C.3     
  39 F39            8.4329     5.3669    -0.2171 F       
  40 H40            4.4014     1.6185     0.6664 H       
  41 H41            5.9243     4.7425     0.1368 H       
  42 H42            8.9322     0.8979    -0.5798 H       
  43 H43            6.5259     0.5249    -0.2263 H       
  44 H44           12.7453     3.4606    -0.6375 H       
  45 H45           10.6497     3.6673     3.7236 H       
  46 H46            0.5201    -0.6658     0.1166 H       
  47 H47           -1.1975    -2.2349     0.9195 H       
  48 H48            1.4973     5.9195    -0.6172 H       
  49 H49            2.4191     5.1275    -1.9178 H       
  50 H50            0.6485     5.2648    -2.0381 H       
  51 H51           -1.5498     4.2554     0.1814 H       
  52 H52           -1.0853     4.3924    -1.5313 H       
  53 H53           -1.8292     2.8920    -0.9283 H       
  54 H54           -3.2404    -1.3821     1.9948 H       
  55 H55           -3.5726     1.0409     2.2694 H       
  56 H56           -1.8584     2.6182     1.4751 H       
  57 H57           14.8578     3.8333     0.5378 H       
  58 H58           17.1227     4.9289     4.2582 H       
  59 H59           17.4077     3.1698     4.1434 H       
  60 H60           19.3700     5.0831     3.6626 H       
  61 H61           19.3828     3.4467     2.9267 H       
  62 H62           18.3223     6.0677     1.7276 H       
  63 H63           19.3565     4.8224     0.9504 H       
  64 H64           17.5477     3.2461     0.7936 H       
  65 H65           16.6906     4.7878     0.4873 H       
@<TRIPOS>BOND
   1    1    2 1
   2    1    5 am
   3    1   22 1
   4    2    3 1
   5    2   27 1
   6    3    4 2
   7    3   26 1
   8    4    5 1
   9    4    6 1
  10    5   21 2
  11    6    7 2
  12    6    8 am
  13    8    9 1
  14    8   40 1
  15    9   10 ar
  16    9   13 ar
  17   10   25 ar
  18   10   41 1
  19   11   12 ar
  20   11   14 1
  21   11   25 ar
  22   12   13 ar
  23   12   42 1
  24   13   43 1
  25   14   18 1
  26   15   16 ar
  27   15   20 ar
  28   16   17 ar
  29   16   31 1
  30   17   18 ar
  31   17   44 1
  32   18   19 ar
  33   19   20 ar
  34   20   45 1
  35   22   23 ar
  36   22   30 ar
  37   23   24 ar
  38   23   46 1
  39   24   28 ar
  40   24   47 1
  41   25   39 1
  42   26   48 1
  43   26   49 1
  44   26   50 1
  45   27   51 1
  46   27   52 1
  47   27   53 1
  48   28   29 ar
  49   28   54 1
  50   29   30 ar
  51   29   55 1
  52   30   56 1
  53   31   32 am
  54   31   57 1
  55   32   33 am
  56   32   34 2
  57   33   35 1
  58   33   38 1
  59   35   36 1
  60   35   58 1
  61   35   59 1
  62   36   37 1
  63   36   60 1
  64   36   61 1
  65   37   38 1
  66   37   62 1
  67   37   63 1
  68   38   64 1
  69   38   65 1

#	End of record

