#	Name: ASD03091080
#	Creating user name:	WinNT
#	Creation time:	15. 06. 2019 20:30

#	Modifying user name:	WinNT
#	Modification time:	15. 06. 2019 20:30

#	Program:	/corina/corina34_cracker 3.40 0067  02.08.2006

@<TRIPOS>MOLECULE
ASD03091080
  55   57    0    0    0
SMALL
NO_CHARGES


@<TRIPOS>ATOM
   1 C1            -0.0395     1.4496    -0.3779 C.2     
   2 C2            -0.0083    -0.0163    -0.1865 C.ar    
   3 C3             1.2138    -0.6879    -0.1194 C.ar    
   4 C4             1.2404    -2.0559     0.0593 C.ar    
   5 C5             0.0598    -2.7661     0.1728 C.ar    
   6 C6            -1.1621    -2.1070     0.1073 C.ar    
   7 C7            -1.1994    -0.7316    -0.0667 C.ar    
   8 O8             0.4806     1.9458    -1.3580 O.2     
   9 N9            -0.6496     2.2351     0.5317 N.am    
  10 N10            2.4810     0.0674    -0.2403 N.pl3   
  11 O11            3.5416    -0.5284    -0.3027 O.2     
  12 O12            2.4633     1.2847    -0.2775 O.2     
  13 C13           -0.6805     3.6874     0.3421 C.3     
  14 C14           -1.4276     4.3382     1.5080 C.3     
  15 C15           -1.4599     5.8550     1.3100 C.3     
  16 C16           -2.1764     6.1829    -0.0014 C.3     
  17 C17           -2.2070     6.5057     2.4760 C.3     
  18 O18           -0.1231     6.3575     1.2611 O.3     
  19 N19           -5.0885    -3.7006    -0.5027 N.3     
  20 C20           -4.8146    -2.6598     0.5000 C.3     
  21 C21           -3.5160    -1.9354     0.1813 C.3     
  22 N22           -2.3525    -2.8292     0.2220 N.3     
  23 C23           -2.4498    -3.8542    -0.8266 C.3     
  24 C24           -3.0826    -5.1220    -0.2726 C.3     
  25 C25           -4.5740    -4.9960    -0.0357 C.3     
  26 C26           -4.6996    -3.3973    -1.8632 C.3     
  27 C27           -3.1924    -3.2781    -2.0184 C.3     
  28 H28            2.1869    -2.5736     0.1102 H       
  29 H29            0.0870    -3.8367     0.3125 H       
  30 H30           -2.1476    -0.2169    -0.1138 H       
  31 H31           -1.0681     1.8388     1.3119 H       
  32 H32            0.3392     4.0708     0.3048 H       
  33 H33           -1.1909     3.9211    -0.5922 H       
  34 H34           -2.4473     3.9548     1.5454 H       
  35 H35           -0.9171     4.1045     2.4423 H       
  36 H36           -3.1961     5.7996     0.0360 H       
  37 H37           -2.1994     7.2635    -0.1425 H       
  38 H38           -1.6442     5.7194    -0.8320 H       
  39 H39           -1.6965     6.2720     3.4103 H       
  40 H40           -2.2300     7.5863     2.3349 H       
  41 H41           -3.2266     6.1223     2.5133 H       
  42 H42            0.3915     6.1851     2.0614 H       
  43 H43           -5.6345    -1.9416     0.5052 H       
  44 H44           -4.7361    -3.1213     1.4843 H       
  45 H45           -3.5908    -1.4983    -0.8144 H       
  46 H46           -3.3715    -1.1345     0.9065 H       
  47 H47           -1.4394    -4.0963    -1.1562 H       
  48 H48           -2.9080    -5.9359    -0.9763 H       
  49 H49           -2.5984    -5.3703     0.6719 H       
  50 H50           -4.7745    -5.0949     1.0311 H       
  51 H51           -5.0878    -5.7960    -0.5687 H       
  52 H52           -5.0610    -4.1893    -2.5191 H       
  53 H53           -5.1612    -2.4559    -2.1613 H       
  54 H54           -2.9293    -2.2257    -2.1248 H       
  55 H55           -2.8856    -3.8111    -2.9183 H       
@<TRIPOS>BOND
   1    1    2 1
   2    1    8 2
   3    1    9 am
   4    2    3 ar
   5    2    7 ar
   6    3    4 ar
   7    3   10 1
   8    4    5 ar
   9    4   28 1
  10    5    6 ar
  11    5   29 1
  12    6    7 ar
  13    6   22 1
  14    7   30 1
  15    9   13 1
  16    9   31 1
  17   10   11 2
  18   10   12 2
  19   13   14 1
  20   13   32 1
  21   13   33 1
  22   14   15 1
  23   14   34 1
  24   14   35 1
  25   15   16 1
  26   15   17 1
  27   15   18 1
  28   16   36 1
  29   16   37 1
  30   16   38 1
  31   17   39 1
  32   17   40 1
  33   17   41 1
  34   18   42 1
  35   19   20 1
  36   19   25 1
  37   19   26 1
  38   20   21 1
  39   20   43 1
  40   20   44 1
  41   21   22 1
  42   21   45 1
  43   21   46 1
  44   22   23 1
  45   23   24 1
  46   23   27 1
  47   23   47 1
  48   24   25 1
  49   24   48 1
  50   24   49 1
  51   25   50 1
  52   25   51 1
  53   26   27 1
  54   26   52 1
  55   26   53 1
  56   27   54 1
  57   27   55 1

#	End of record

