#	Name: ASD03320042
#	Creating user name:	WinNT
#	Creation time:	15. 06. 2019 20:36

#	Modifying user name:	WinNT
#	Modification time:	15. 06. 2019 20:36

#	Program:	/corina/corina34_cracker 3.40 0067  02.08.2006

@<TRIPOS>MOLECULE
ASD03320042
  41   43    0    0    0
SMALL
NO_CHARGES


@<TRIPOS>ATOM
   1 C1            -0.0182     1.4703     0.0179 C.2     
   2 C2             0.0010    -0.0047     0.0159 C.ar    
   3 C3             1.2199    -0.7007     0.0086 C.ar    
   4 C4             1.1903    -2.0696     0.0075 C.ar    
   5 C5            -0.0398    -2.7270     0.0136 C.ar    
   6 N6            -1.1766    -2.0449     0.0200 N.ar    
   7 C7            -1.1924    -0.7281     0.0271 C.ar    
   8 O8             1.0269     2.0921     0.0131 O.2     
   9 N9            -1.1941     2.1289     0.0193 N.am    
  10 C10           -2.1784     4.2692    -0.5319 C.ar    
  11 C11           -1.2149     3.5254     0.1327 C.ar    
  12 C12           -0.2676     4.1837     0.9154 C.ar    
  13 C13           -0.3258     5.5626     0.9993 C.ar    
  14 C14           -1.3210     6.2429     0.3046 C.ar    
  15 N15           -2.2048     5.5843    -0.4297 N.ar    
  16 S16           -1.4069     8.0000     0.4033 S.3     
  17 C17           -2.8323     8.3984    -0.6455 C.3     
  18 F18           -3.9758     7.7747    -0.1349 F       
  19 F19           -3.0255     9.7839    -0.6632 F       
  20 F20           -2.5951     7.9440    -1.9472 F       
  21 N21           -0.0741    -4.1116     0.0126 N.3     
  22 C22           -1.4633    -4.6057     0.0197 C.3     
  23 C23           -1.6299    -5.5194    -1.2127 C.3     
  24 C24           -0.1724    -5.9443    -1.5324 C.3     
  25 C25            0.6137    -4.6577    -1.1768 C.3     
  26 O26           -2.4297    -6.6594    -0.8922 O.3     
  27 Br27           2.8016    -3.0593    -0.0028 Br      
  28 H28            2.1597    -0.1686     0.0036 H       
  29 H29           -2.1365    -0.2038     0.0370 H       
  30 H30           -2.0261     1.6362    -0.0582 H       
  31 H31           -2.9128     3.7665    -1.1437 H       
  32 H32            0.4938     3.6296     1.4442 H       
  33 H33            0.3921     6.1048     1.5969 H       
  34 H34           -1.6499    -5.1743     0.9307 H       
  35 H35           -2.1557    -3.7664    -0.0446 H       
  36 H36           -2.0619    -4.9664    -2.0468 H       
  37 H37            0.1382    -6.7782    -0.9030 H       
  38 H38           -0.0603    -6.1911    -2.5882 H       
  39 H39            0.5693    -3.9459    -2.0010 H       
  40 H40            1.6494    -4.8996    -0.9385 H       
  41 H41           -2.5649    -7.2659    -1.6331 H       
@<TRIPOS>BOND
   1    1    2 1
   2    1    8 2
   3    1    9 am
   4    2    3 ar
   5    2    7 ar
   6    3    4 ar
   7    3   28 1
   8    4    5 ar
   9    4   27 1
  10    5    6 ar
  11    5   21 1
  12    6    7 ar
  13    7   29 1
  14    9   11 1
  15    9   30 1
  16   10   11 ar
  17   10   15 ar
  18   10   31 1
  19   11   12 ar
  20   12   13 ar
  21   12   32 1
  22   13   14 ar
  23   13   33 1
  24   14   15 ar
  25   14   16 1
  26   16   17 1
  27   17   18 1
  28   17   19 1
  29   17   20 1
  30   21   22 1
  31   21   25 1
  32   22   23 1
  33   22   34 1
  34   22   35 1
  35   23   24 1
  36   23   26 1
  37   23   36 1
  38   24   25 1
  39   24   37 1
  40   24   38 1
  41   25   39 1
  42   25   40 1
  43   26   41 1

#	End of record

