#	Name: ASD01410262
#	Creating user name:	WinNT
#	Creation time:	15. 06. 2019 19:17

#	Modifying user name:	WinNT
#	Modification time:	15. 06. 2019 19:17

#	Program:	/corina/corina34_cracker 3.40 0067  02.08.2006

@<TRIPOS>MOLECULE
ASD01410262
  26   27    0    0    0
SMALL
NO_CHARGES


@<TRIPOS>ATOM
   1 C1            -0.0167     1.3776     0.0096 C.ar    
   2 C2             0.0021    -0.0041     0.0020 C.ar    
   3 C3            -1.1834    -0.7217     0.0095 C.ar    
   4 C4            -2.3946    -0.0638     0.0241 C.ar    
   5 C5            -2.4282     1.3345     0.0320 C.ar    
   6 C6            -1.2253     2.0566     0.0306 C.ar    
   7 O7            -1.2449     3.4137     0.0381 O.3     
   8 I8             1.7842     2.4481    -0.0018 I       
   9 C9            -3.7164     2.0433     0.0471 C.2     
  10 N10           -3.7432     3.3467     0.0543 N.2     
  11 C11           -5.9956     3.5299     0.8513 C.ar    
  12 C12           -4.9421     4.0064     0.0684 C.ar    
  13 C13           -5.1174     5.1607    -0.7006 C.ar    
  14 C14           -6.3291     5.8211    -0.6812 C.ar    
  15 C15           -7.3693     5.3424     0.0978 C.ar    
  16 C16           -7.2015     4.1996     0.8615 C.ar    
  17 I17           -1.1346    -2.8161    -0.0022 I       
  18 Cl18          -8.8902     6.1791     0.1173 Cl      
  19 Cl19          -3.8141     5.7621    -1.6770 Cl      
  20 H20            0.9464    -0.5279    -0.0102 H       
  21 H21           -3.3161    -0.6271     0.0292 H       
  22 H22           -1.2466     3.8021     0.9237 H       
  23 H23           -4.6404     1.4842     0.0522 H       
  24 H24           -5.8679     2.6362     1.4442 H       
  25 H25           -6.4663     6.7132    -1.2743 H       
  26 H26           -8.0169     3.8315     1.4665 H       
@<TRIPOS>BOND
   1    1    2 ar
   2    1    8 1
   3    1    6 ar
   4    2    3 ar
   5    2   20 1
   6    3    4 ar
   7    3   17 1
   8    4    5 ar
   9    4   21 1
  10    5    6 ar
  11    5    9 1
  12    6    7 1
  13    7   22 1
  14    9   10 2
  15    9   23 1
  16   10   12 1
  17   11   12 ar
  18   11   16 ar
  19   11   24 1
  20   12   13 ar
  21   13   14 ar
  22   13   19 1
  23   14   15 ar
  24   14   25 1
  25   15   16 ar
  26   15   18 1
  27   16   26 1

#	End of record

