#	Name: ASD01208998
#	Creating user name:	WinNT
#	Creation time:	15. 06. 2019 19:10

#	Modifying user name:	WinNT
#	Modification time:	15. 06. 2019 19:10

#	Program:	/corina/corina34_cracker 3.40 0067  02.08.2006

@<TRIPOS>MOLECULE
ASD01208998
  55   59    0    0    0
SMALL
NO_CHARGES


@<TRIPOS>ATOM
   1 C1            -2.0238     1.5053    -1.3006 C.3     
   2 C2            -2.1618    -0.0186    -1.2294 C.3     
   3 C3            -1.5631    -0.5259     0.0840 C.3     
   4 C4            -1.5371    -2.0557     0.0753 C.3     
   5 C5            -0.7770    -2.5520     1.2782 C.2     
   6 N6             0.5523    -2.3477     1.3667 N.am    
   7 C7             1.2721    -2.8999     2.4212 C.2     
   8 N8            -2.9091    -2.5676     0.1193 N.pl3   
   9 C9            -3.4261    -3.5284    -0.7101 C.ar    
  10 C10           -4.7675    -3.7177    -0.3243 C.ar    
  11 C11           -5.0069    -2.8041     0.7883 C.2     
  12 N12           -3.8994    -2.1585     1.0183 N.2     
  13 O13           -1.3614    -3.1354     2.1665 O.2     
  14 C14           -3.6468    -0.3892    -1.2925 C.3     
  15 C15           -4.2554     0.1901    -2.5722 C.3     
  16 O16           -4.0655     1.6064    -2.5896 O.3     
  17 C17           -2.6951     2.0115    -2.5800 C.3     
  18 C18           -2.9057    -4.2750    -1.7639 C.ar    
  19 C19           -3.6972    -5.1808    -2.4116 C.ar    
  20 C20           -5.0204    -5.3690    -2.0326 C.ar    
  21 C21           -5.5574    -4.6521    -1.0026 C.ar    
  22 S22           -7.2372    -4.9001    -0.5318 S.o2    
  23 C23           -7.1409    -5.5833     1.1459 C.3     
  24 O24           -7.7908    -3.5917    -0.5063 O.2     
  25 O25           -7.7153    -5.8804    -1.4426 O.2     
  26 C26           -8.4492    -6.0241     1.8054 C.3     
  27 C27           -7.4456    -7.0724     1.3209 C.3     
  28 S28            3.0063    -2.7251     2.6761 S.3     
  29 C29            2.8876    -3.7087     4.1337 C.2     
  30 C30            1.6115    -4.0662     4.2937 C.2     
  31 N31            0.7723    -3.6214     3.3770 N.2     
  32 F32            3.9118    -4.0435     4.9486 F       
  33 H33           -2.5065     1.9557    -0.4333 H       
  34 H34           -0.9678     1.7752    -1.3120 H       
  35 H35           -1.6355    -0.4720    -2.0693 H       
  36 H36           -0.5470    -0.1459     0.1908 H       
  37 H37           -2.1710    -0.1776     0.9189 H       
  38 H38           -1.0477    -2.4057    -0.8336 H       
  39 H39            1.0070    -1.8155     0.6952 H       
  40 H40           -5.9353    -2.6876     1.3276 H       
  41 H41           -3.7515    -1.4742    -1.2982 H       
  42 H42           -4.1622     0.0229    -0.4250 H       
  43 H43           -3.7667    -0.2528    -3.4400 H       
  44 H44           -5.3217    -0.0340    -2.6015 H       
  45 H45           -2.6374     3.0994    -2.6148 H       
  46 H46           -2.1860     1.5924    -3.4479 H       
  47 H47           -1.8787    -4.1381    -2.0688 H       
  48 H48           -3.2893    -5.7574    -3.2287 H       
  49 H49           -5.6298    -6.0900    -2.5573 H       
  50 H50           -6.3757    -5.1470     1.7880 H       
  51 H51           -8.5446    -5.8781     2.8813 H       
  52 H52           -9.3678    -5.9036     1.2311 H       
  53 H53           -7.7039    -7.6416     0.4279 H       
  54 H54           -6.8808    -7.6161     2.0781 H       
  55 H55            1.2857    -4.6770     5.1226 H       
@<TRIPOS>BOND
   1    1    2 1
   2    1   17 1
   3    1   33 1
   4    1   34 1
   5    2    3 1
   6    2   14 1
   7    2   35 1
   8    3    4 1
   9    3   36 1
  10    3   37 1
  11    4    5 1
  12    4    8 1
  13    4   38 1
  14    5    6 am
  15    5   13 2
  16    6    7 1
  17    6   39 1
  18    7   28 1
  19    7   31 2
  20    8    9 1
  21    8   12 1
  22    9   10 ar
  23    9   18 ar
  24   10   11 1
  25   10   21 ar
  26   11   12 2
  27   11   40 1
  28   14   15 1
  29   14   41 1
  30   14   42 1
  31   15   16 1
  32   15   43 1
  33   15   44 1
  34   16   17 1
  35   17   45 1
  36   17   46 1
  37   18   19 ar
  38   18   47 1
  39   19   20 ar
  40   19   48 1
  41   20   21 ar
  42   20   49 1
  43   21   22 1
  44   22   23 1
  45   22   24 2
  46   22   25 2
  47   23   26 1
  48   23   27 1
  49   23   50 1
  50   26   27 1
  51   26   51 1
  52   26   52 1
  53   27   53 1
  54   27   54 1
  55   28   29 1
  56   29   30 2
  57   29   32 1
  58   30   31 1
  59   30   55 1

#	End of record

