#	Name: ASD03081307
#	Creating user name:	WinNT
#	Creation time:	15. 06. 2019 20:27

#	Modifying user name:	WinNT
#	Modification time:	15. 06. 2019 20:27

#	Program:	/corina/corina34_cracker 3.40 0067  02.08.2006

@<TRIPOS>MOLECULE
ASD03081307
  34   36    0    0    0
SMALL
NO_CHARGES


@<TRIPOS>ATOM
   1 O1            -0.0162     1.3445     0.0094 O.3     
   2 C2             0.0021    -0.0041     0.0020 C.2     
   3 N3             1.2613    -0.3804    -0.0120 N.2     
   4 N4             2.0180     0.6601    -0.0137 N.2     
   5 C5             1.2730     1.7417    -0.0007 C.2     
   6 C6             0.8553     4.2024     0.0165 C.ar    
   7 C7             1.7578     3.1373     0.0021 C.ar    
   8 C8             3.1302     3.4142    -0.0090 C.ar    
   9 C9             3.5320     4.7384    -0.0053 C.ar    
  10 C10            2.5746     5.7365     0.0092 C.ar    
  11 N11            1.2875     5.4461     0.0199 N.ar    
  12 C12           -1.1758    -0.8940     0.0085 C.ar    
  13 C13           -1.0074    -2.2834    -0.0006 C.ar    
  14 C14           -2.1231    -3.1121     0.0056 C.ar    
  15 C15           -3.3951    -2.5616     0.0206 C.ar    
  16 C16           -3.5616    -1.1876     0.0291 C.ar    
  17 C17           -2.4636    -0.3533     0.0295 C.ar    
  18 O18           -1.9668    -4.4631    -0.0036 O.3     
  19 C19           -3.1570    -5.2539     0.0035 C.3     
  20 O20            0.2411    -2.8195    -0.0158 O.3     
  21 C21            0.8498    -3.0823     1.2501 C.3     
  22 H22           -0.2065     4.0045     0.0207 H       
  23 H23            3.8565     2.6150    -0.0199 H       
  24 H24            4.5823     4.9899    -0.0133 H       
  25 H25            2.8856     6.7708     0.0121 H       
  26 H26           -4.2603    -3.2079     0.0254 H       
  27 H27           -4.5562    -0.7669     0.0401 H       
  28 H28           -2.5994     0.7180     0.0411 H       
  29 H29           -2.8909    -6.3109    -0.0051 H       
  30 H30           -3.7353    -5.0321     0.9004 H       
  31 H31           -3.7526    -5.0219    -0.8795 H       
  32 H32            0.2350    -3.7875     1.8095 H       
  33 H33            1.8412    -3.5079     1.0952 H       
  34 H34            0.9374    -2.1519     1.8113 H       
@<TRIPOS>BOND
   1    1    2 1
   2    1    5 1
   3    2    3 2
   4    2   12 1
   5    3    4 1
   6    4    5 2
   7    5    7 1
   8    6    7 ar
   9    6   11 ar
  10    6   22 1
  11    7    8 ar
  12    8    9 ar
  13    8   23 1
  14    9   10 ar
  15    9   24 1
  16   10   11 ar
  17   10   25 1
  18   12   13 ar
  19   12   17 ar
  20   13   14 ar
  21   13   20 1
  22   14   15 ar
  23   14   18 1
  24   15   16 ar
  25   15   26 1
  26   16   17 ar
  27   16   27 1
  28   17   28 1
  29   18   19 1
  30   19   29 1
  31   19   30 1
  32   19   31 1
  33   20   21 1
  34   21   32 1
  35   21   33 1
  36   21   34 1

#	End of record

