#	Name: ASD01148865
#	Creating user name:	WinNT
#	Creation time:	15. 06. 2019 19:03

#	Modifying user name:	WinNT
#	Modification time:	15. 06. 2019 19:03

#	Program:	/corina/corina34_cracker 3.40 0067  02.08.2006

@<TRIPOS>MOLECULE
ASD01148865
  41   42    0    0    0
SMALL
NO_CHARGES


@<TRIPOS>ATOM
   1 C1            -0.0184     1.5028     0.0103 C.2     
   2 C2             0.0021    -0.0041     0.0020 C.3     
   3 C3             1.4513    -0.4944    -0.0145 C.3     
   4 C4             2.1073    -0.0797    -1.3063 C.2     
   5 O5             1.0197     2.1211     0.0037 O.2     
   6 O6            -1.1898     2.1580     0.0194 O.3     
   7 O7             1.4777     0.5463    -2.1323 O.2     
   8 C8            -0.6897    -0.5226     1.2364 C.2     
   9 C9            -2.1353    -0.7871     1.2124 C.ar    
  10 C10           -2.7828    -1.2694     2.3580 C.ar    
  11 C11           -4.1427    -1.5150     2.3250 C.ar    
  12 C12           -4.8618    -1.2858     1.1665 C.ar    
  13 C13           -4.2281    -0.8098     0.0310 C.ar    
  14 C14           -2.8742    -0.5534     0.0474 C.ar    
  15 O15           -0.0536    -0.7217     2.2495 O.2     
  16 F16           -2.0804    -1.4939     3.4900 F       
  17 C17            3.5111    -0.4342    -1.5652 C.ar    
  18 C18            4.1233    -0.0509    -2.7633 C.ar    
  19 C19            5.4392    -0.3861    -2.9988 C.ar    
  20 C20            6.1554    -1.1015    -2.0526 C.ar    
  21 C21            5.5554    -1.4849    -0.8639 C.ar    
  22 C22            4.2422    -1.1513    -0.6120 C.ar    
  23 Cl23           7.8123    -1.5199    -2.3582 Cl      
  24 C24           -1.1335     3.6089     0.0270 C.3     
  25 C25           -2.5551     4.1744     0.0369 C.3     
  26 H26           -0.5153    -0.3696    -0.8850 H       
  27 H27            1.9924    -0.0570     0.8246 H       
  28 H28            1.4682    -1.5810     0.0691 H       
  29 H29           -4.6446    -1.8870     3.2060 H       
  30 H30           -5.9241    -1.4796     1.1469 H       
  31 H31           -4.7979    -0.6344    -0.8696 H       
  32 H32           -2.3837    -0.1776    -0.8383 H       
  33 H33            3.5661     0.5061    -3.5019 H       
  34 H34            5.9131    -0.0909    -3.9233 H       
  35 H35            6.1196    -2.0426    -0.1311 H       
  36 H36            3.7771    -1.4469     0.3168 H       
  37 H37           -0.6017     3.9472     0.9164 H       
  38 H38           -0.6102     3.9569    -0.8636 H       
  39 H39           -2.5128     5.2636     0.0426 H       
  40 H40           -3.0869     3.8361    -0.8525 H       
  41 H41           -3.0784     3.8265     0.9275 H       
@<TRIPOS>BOND
   1    1    2 1
   2    1    5 2
   3    1    6 1
   4    2    3 1
   5    2    8 1
   6    2   26 1
   7    3    4 1
   8    3   27 1
   9    3   28 1
  10    4    7 2
  11    4   17 1
  12    6   24 1
  13    8    9 1
  14    8   15 2
  15    9   10 ar
  16    9   14 ar
  17   10   11 ar
  18   10   16 1
  19   11   12 ar
  20   11   29 1
  21   12   13 ar
  22   12   30 1
  23   13   14 ar
  24   13   31 1
  25   14   32 1
  26   17   18 ar
  27   17   22 ar
  28   18   19 ar
  29   18   33 1
  30   19   20 ar
  31   19   34 1
  32   20   21 ar
  33   20   23 1
  34   21   22 ar
  35   21   35 1
  36   22   36 1
  37   24   25 1
  38   24   37 1
  39   24   38 1
  40   25   39 1
  41   25   40 1
  42   25   41 1

#	End of record

