#	Name: ASD05430572
#	Creating user name:	WinNT
#	Creation time:	15. 06. 2019 21:00

#	Modifying user name:	WinNT
#	Modification time:	15. 06. 2019 21:00

#	Program:	/corina/corina34_cracker 3.40 0067  02.08.2006

@<TRIPOS>MOLECULE
ASD05430572
  32   33    0    0    0
SMALL
NO_CHARGES


@<TRIPOS>ATOM
   1 N1            -0.0159     1.3180     0.0093 N.ar    
   2 C2             0.0021    -0.0041     0.0020 C.ar    
   3 C3             1.0907     2.0337     0.0026 C.ar    
   4 C4             2.3299     1.4020    -0.0131 C.ar    
   5 C5             2.3873    -0.0057    -0.0212 C.ar    
   6 C6             1.1868    -0.7086    -0.0131 C.ar    
   7 C7             1.0135     3.5387     0.0114 C.3     
   8 C8             1.1816    -2.2155    -0.0216 C.3     
   9 C9             0.4712    -2.7301     1.2320 C.3     
  10 C10            0.4460    -2.7160    -1.2663 C.3     
  11 C11            0.2552     4.0177    -1.2281 C.3     
  12 C12            0.2790     4.0043     1.2702 C.3     
  13 C13            3.7266     1.8485    -0.0246 C.2     
  14 C14            4.4742     0.7360    -0.0380 C.2     
  15 O15            3.6851    -0.3537    -0.0359 O.3     
  16 H16           -0.9330    -0.5444     0.0084 H       
  17 H17            2.0211     3.9543     0.0040 H       
  18 H18            2.2079    -2.5823    -0.0340 H       
  19 H19           -0.5551    -2.3633     1.2445 H       
  20 H20            0.4675    -3.8201     1.2259 H       
  21 H21            0.9953    -2.3736     2.1188 H       
  22 H22           -0.5804    -2.3492    -1.2538 H       
  23 H23            0.9520    -2.3494    -2.1594 H       
  24 H24            0.4422    -3.8060    -1.2724 H       
  25 H25           -0.7525     3.6022    -1.2207 H       
  26 H26            0.1993     5.1063    -1.2217 H       
  27 H27            0.7784     3.6860    -2.1249 H       
  28 H28           -0.7286     3.5887     1.2776 H       
  29 H29            0.8193     3.6630     2.1533 H       
  30 H30            0.2232     5.0929     1.2766 H       
  31 H31            4.0815     2.8685    -0.0232 H       
  32 H32            5.5540     0.7172    -0.0491 H       
@<TRIPOS>BOND
   1    1    2 ar
   2    1    3 ar
   3    2    6 ar
   4    2   16 1
   5    3    4 ar
   6    3    7 1
   7    4    5 ar
   8    4   13 1
   9    5    6 ar
  10    5   15 1
  11    6    8 1
  12    7   11 1
  13    7   12 1
  14    7   17 1
  15    8    9 1
  16    8   10 1
  17    8   18 1
  18    9   19 1
  19    9   20 1
  20    9   21 1
  21   10   22 1
  22   10   23 1
  23   10   24 1
  24   11   25 1
  25   11   26 1
  26   11   27 1
  27   12   28 1
  28   12   29 1
  29   12   30 1
  30   13   14 2
  31   13   31 1
  32   14   15 1
  33   14   32 1

#	End of record

