#	Name: ASD03091530
#	Creating user name:	WinNT
#	Creation time:	15. 06. 2019 20:30

#	Modifying user name:	WinNT
#	Modification time:	15. 06. 2019 20:30

#	Program:	/corina/corina34_cracker 3.40 0067  02.08.2006

@<TRIPOS>MOLECULE
ASD03091530
  21   22    0    0    0
SMALL
NO_CHARGES


@<TRIPOS>ATOM
   1 C1            -0.0161     1.3335     0.0094 C.2     
   2 C2             0.0021    -0.0041     0.0020 C.2     
   3 C3             1.2764    -0.5926    -0.0133 C.ar    
   4 C4             2.3070     0.3565    -0.0181 C.ar    
   5 S5             1.6171     1.9755    -0.0028 S.3     
   6 C6             3.6406    -0.0637    -0.0330 C.ar    
   7 C7             3.9426    -1.4054    -0.0436 C.ar    
   8 C8             2.9234    -2.3510    -0.0389 C.ar    
   9 C9             1.6199    -1.9659    -0.0240 C.ar    
  10 C10           -1.2349     2.1520     0.0198 C.2     
  11 O11           -2.3265     1.6167     0.0222 O.2     
  12 O12           -1.1435     3.4973     0.0267 O.3     
  13 Br13           5.7486    -1.9655    -0.0651 Br      
  14 C14           -2.3897     4.2426     0.0368 C.3     
  15 H15           -0.9037    -0.5922     0.0079 H       
  16 H16            4.4356     0.6673    -0.0367 H       
  17 H17            3.1699    -3.4024    -0.0477 H       
  18 H18            0.8403    -2.7133    -0.0202 H       
  19 H19           -2.9696     3.9929    -0.8517 H       
  20 H20           -2.9608     3.9832     0.9282 H       
  21 H21           -2.1740     5.3110     0.0416 H       
@<TRIPOS>BOND
   1    1    2 2
   2    1    5 1
   3    1   10 1
   4    2    3 1
   5    2   15 1
   6    3    4 ar
   7    3    9 ar
   8    4    5 1
   9    4    6 ar
  10    6    7 ar
  11    6   16 1
  12    7    8 ar
  13    7   13 1
  14    8    9 ar
  15    8   17 1
  16    9   18 1
  17   10   11 2
  18   10   12 1
  19   12   14 1
  20   14   19 1
  21   14   20 1
  22   14   21 1

#	End of record

