#	Name: ASD05430641
#	Creating user name:	WinNT
#	Creation time:	15. 06. 2019 21:00

#	Modifying user name:	WinNT
#	Modification time:	15. 06. 2019 21:00

#	Program:	/corina/corina34_cracker 3.40 0067  02.08.2006

@<TRIPOS>MOLECULE
ASD05430641
  35   37    0    0    0
SMALL
NO_CHARGES


@<TRIPOS>ATOM
   1 C1            -0.0168     1.3907     0.0097 C.ar    
   2 C2             0.0021    -0.0041     0.0020 C.ar    
   3 C3             1.2121    -0.6756    -0.0132 C.ar    
   4 C4             2.4076     0.0270    -0.0208 C.ar    
   5 C5             2.4076     1.4036    -0.0130 C.ar    
   6 C6             1.1951     2.0983     0.0019 C.ar    
   7 C7             3.7115     2.1592    -0.0204 C.3     
   8 C8             4.5256     1.7838     1.2195 C.3     
   9 C9             4.5031     1.7981    -1.2789 C.3     
  10 N10           -1.2016    -0.7237     0.0101 N.pl3   
  11 C11           -1.3416    -2.0635     0.0043 C.2     
  12 N12           -2.5010    -0.1912     0.0321 N.2     
  13 C13           -3.3255    -1.2062     0.0332 C.2     
  14 N14           -2.6213    -2.3372     0.0164 N.2     
  15 C15           -4.8294    -1.1119     0.0544 C.3     
  16 C16            0.8441     3.5214     0.0132 C.2     
  17 N17           -0.4508     3.6019     0.0253 N.2     
  18 O18           -1.0094     2.3034     0.0187 O.3     
  19 C19           -5.3578    -1.0658    -1.3807 C.3     
  20 H20            1.2254    -1.7555    -0.0187 H       
  21 H21            3.3449    -0.5093    -0.0327 H       
  22 H22            3.5105     3.2305    -0.0125 H       
  23 H23            3.9616     2.0411     2.1160 H       
  24 H24            4.7265     0.7125     1.2115 H       
  25 H25            5.4686     2.3304     1.2141 H       
  26 H26            3.9231     2.0655    -2.1622 H       
  27 H27            5.4461     2.3447    -1.2842 H       
  28 H28            4.7040     0.7268    -1.2868 H       
  29 H29           -0.5384    -2.7854    -0.0084 H       
  30 H30           -5.2409    -1.9825     0.5652 H       
  31 H31           -5.1293    -0.2061     0.5813 H       
  32 H32            1.5361     4.3505     0.0117 H       
  33 H33           -5.0580    -1.9716    -1.9076 H       
  34 H34           -6.4456    -0.9976    -1.3654 H       
  35 H35           -4.9464    -0.1952    -1.8916 H       
@<TRIPOS>BOND
   1    1    2 ar
   2    1    6 ar
   3    1   18 1
   4    2    3 ar
   5    2   10 1
   6    3    4 ar
   7    3   20 1
   8    4    5 ar
   9    4   21 1
  10    5    6 ar
  11    5    7 1
  12    6   16 1
  13    7    8 1
  14    7    9 1
  15    7   22 1
  16    8   23 1
  17    8   24 1
  18    8   25 1
  19    9   26 1
  20    9   27 1
  21    9   28 1
  22   10   11 1
  23   10   12 1
  24   11   14 2
  25   11   29 1
  26   12   13 2
  27   13   14 1
  28   13   15 1
  29   15   19 1
  30   15   30 1
  31   15   31 1
  32   16   17 2
  33   16   32 1
  34   17   18 1
  35   19   33 1
  36   19   34 1
  37   19   35 1

#	End of record

