#	Name: ASD01140209
#	Creating user name:	WinNT
#	Creation time:	15. 06. 2019 19:00

#	Modifying user name:	WinNT
#	Modification time:	15. 06. 2019 19:00

#	Program:	/corina/corina34_cracker 3.40 0067  02.08.2006

@<TRIPOS>MOLECULE
ASD01140209
  51   54    0    0    0
SMALL
NO_CHARGES


@<TRIPOS>ATOM
   1 C1            -0.0170     1.4025     0.0098 C.2     
   2 C2             0.0021    -0.0041     0.0020 C.2     
   3 N3            -1.1146    -0.6913     0.0090 N.2     
   4 N4            -2.3485    -0.0383     0.0243 N.pl3   
   5 C5            -2.4020     1.3339     0.0322 C.2     
   6 C6            -1.2025     2.0693     0.0303 C.2     
   7 C7            -3.6437    -0.4640     0.0348 C.2     
   8 N8            -4.4103     0.6107     0.0481 N.2     
   9 N9            -3.6829     1.6725     0.0466 N.2     
  10 C10           -4.1041    -1.8681     0.0313 C.ar    
  11 C11            1.2786     2.1722     0.0015 C.3     
  12 C12            0.9804     3.6728     0.0124 C.3     
  13 C13            2.0973     1.8059     1.2410 C.3     
  14 C14            2.0735     1.8193    -1.2573 C.3     
  15 C15           -5.4713    -2.1589     0.0433 C.ar    
  16 C16           -5.8937    -3.4748     0.0401 C.ar    
  17 C17           -4.9668    -4.5013     0.0250 C.ar    
  18 C18           -3.6120    -4.2191     0.0135 C.ar    
  19 C19           -3.1758    -2.9105     0.0103 C.ar    
  20 F20           -6.3770    -1.1567     0.0585 F       
  21 O21            1.1911    -0.6579    -0.0133 O.3     
  22 C22            1.1460    -2.0862    -0.0205 C.3     
  23 C23            2.5502    -2.6330    -0.0374 C.2     
  24 N24            3.2764    -2.9179     1.0129 N.2     
  25 C25            4.4655    -3.3802     0.6284 C.2     
  26 N26            4.5125    -3.3960    -0.6778 N.2     
  27 N27            3.2730    -2.9187    -1.1342 N.pl3   
  28 C28            2.8545    -2.7553    -2.5287 C.3     
  29 C29            2.1918    -4.0450    -3.0167 C.3     
  30 H30           -1.2228     3.1491     0.0364 H       
  31 H31            0.4141     3.9243     0.9092 H       
  32 H32            1.9175     4.2296     0.0065 H       
  33 H33            0.3971     3.9338    -0.8706 H       
  34 H34            2.3097     0.7369     1.2333 H       
  35 H35            3.0344     2.3626     1.2351 H       
  36 H36            1.5310     2.0573     2.1378 H       
  37 H37            1.4902     2.0803    -2.1403 H       
  38 H38            3.0105     2.3760    -1.2632 H       
  39 H39            2.2859     0.7503    -1.2651 H       
  40 H40           -6.9494    -3.7021     0.0497 H       
  41 H41           -5.3019    -5.5280     0.0225 H       
  42 H42           -2.8941    -5.0259     0.0022 H       
  43 H43           -2.1180    -2.6928     0.0010 H       
  44 H44            0.6299    -2.4379     0.8728 H       
  45 H45            0.6122    -2.4284    -0.9071 H       
  46 H46            5.2615    -3.6910     1.2888 H       
  47 H47            2.1439    -1.9319    -2.6006 H       
  48 H48            3.7259    -2.5383    -3.1465 H       
  49 H49            1.8804    -3.9235    -4.0542 H       
  50 H50            2.9024    -4.8684    -2.9447 H       
  51 H51            1.3204    -4.2621    -2.3989 H       
@<TRIPOS>BOND
   1    1    2 1
   2    1   11 1
   3    1    6 2
   4    2    3 2
   5    2   21 1
   6    3    4 1
   7    4    5 1
   8    4    7 1
   9    5    6 1
  10    5    9 2
  11    6   30 1
  12    7    8 2
  13    7   10 1
  14    8    9 1
  15   10   15 ar
  16   10   19 ar
  17   11   12 1
  18   11   13 1
  19   11   14 1
  20   12   31 1
  21   12   32 1
  22   12   33 1
  23   13   34 1
  24   13   35 1
  25   13   36 1
  26   14   37 1
  27   14   38 1
  28   14   39 1
  29   15   16 ar
  30   15   20 1
  31   16   17 ar
  32   16   40 1
  33   17   18 ar
  34   17   41 1
  35   18   19 ar
  36   18   42 1
  37   19   43 1
  38   21   22 1
  39   22   23 1
  40   22   44 1
  41   22   45 1
  42   23   24 2
  43   23   27 1
  44   24   25 1
  45   25   26 2
  46   25   46 1
  47   26   27 1
  48   27   28 1
  49   28   29 1
  50   28   47 1
  51   28   48 1
  52   29   49 1
  53   29   50 1
  54   29   51 1

#	End of record

