#	Name: ASD04590648
#	Creating user name:	WinNT
#	Creation time:	15. 06. 2019 20:51

#	Modifying user name:	WinNT
#	Modification time:	15. 06. 2019 20:51

#	Program:	/corina/corina34_cracker 3.40 0067  02.08.2006

@<TRIPOS>MOLECULE
ASD04590648
  53   57    0    0    0
SMALL
NO_CHARGES


@<TRIPOS>ATOM
   1 N1            -0.0171     1.3232    -0.0119 N.ar    
   2 C2             0.0017    -0.0035    -0.0051 C.ar    
   3 N3             1.1298    -0.6949    -0.0118 N.ar    
   4 C4             2.3050    -0.0728    -0.0262 C.ar    
   5 C5             2.3189     1.3366    -0.0341 C.ar    
   6 C6             1.1072     2.0202    -0.0262 C.ar    
   7 N7             3.6031    -0.5195    -0.0358 N.pl3   
   8 C8             4.4823     0.5495    -0.0499 C.ar    
   9 C9             3.7312     1.7385    -0.0495 C.ar    
  10 C10            5.8680     0.6418    -0.0633 C.ar    
  11 N11            6.4613     1.8181    -0.0753 N.ar    
  12 C12            5.7850     2.9533    -0.0753 C.ar    
  13 C13            4.4064     2.9585    -0.0621 C.ar    
  14 N14           -1.2019    -0.6887     0.0098 N.pl3   
  15 C15           -2.4019     0.0120     0.1303 C.ar    
  16 C16            4.0018    -1.9292    -0.0312 C.3     
  17 N17           -2.3783     1.3196     0.3309 N.ar    
  18 C18           -3.4885     2.0229     0.4509 C.ar    
  19 C19           -4.7291     1.4087     0.3703 C.ar    
  20 C20           -4.7935     0.0321     0.1596 C.ar    
  21 C21           -3.6094    -0.6709     0.0326 C.ar    
  22 N22           -5.9023     2.1615     0.4995 N.3     
  23 C23           -5.5953     3.5824     0.7148 C.3     
  24 C24           -6.9000     4.3806     0.7711 C.3     
  25 N25           -7.7449     3.8574     1.8537 N.3     
  26 C26           -8.0519     2.4365     1.6384 C.3     
  27 C27           -6.7473     1.6383     1.5820 C.3     
  28 C28            3.4578    -2.6090     1.2269 C.3     
  29 C29            3.4353    -2.6234    -1.2715 C.3     
  30 H30            1.0848     3.1000    -0.0323 H       
  31 H31            6.4645    -0.2585    -0.0635 H       
  32 H32            6.3203     3.8912    -0.0851 H       
  33 H33            3.8596     3.8899    -0.0625 H       
  34 H34           -1.2103    -1.6559    -0.0635 H       
  35 H35            5.0895    -1.9992    -0.0406 H       
  36 H36           -3.4301     3.0889     0.6140 H       
  37 H37           -5.7459    -0.4729     0.0926 H       
  38 H38           -3.6221    -1.7382    -0.1317 H       
  39 H39           -5.0564     3.6996     1.6549 H       
  40 H40           -4.9794     3.9498    -0.1061 H       
  41 H41           -6.6760     5.4305     0.9597 H       
  42 H42           -7.4258     4.2855    -0.1789 H       
  43 H43           -7.3106     4.0013     2.7530 H       
  44 H44           -8.6679     2.0691     2.4592 H       
  45 H45           -8.5909     2.3193     0.6982 H       
  46 H46           -6.9712     0.5883     1.3935 H       
  47 H47           -6.2214     1.7334     2.5321 H       
  48 H48            3.7544    -3.6579     1.2303 H       
  49 H49            3.8614    -2.1144     2.1104 H       
  50 H50            2.3701    -2.5390     1.2363 H       
  51 H51            3.8228    -2.1391    -2.1678 H       
  52 H52            3.7319    -3.6723    -1.2681 H       
  53 H53            2.3476    -2.5534    -1.2621 H       
@<TRIPOS>BOND
   1    1    2 ar
   2    1    6 ar
   3    2    3 ar
   4    2   14 1
   5    3    4 ar
   6    4    5 ar
   7    4    7 1
   8    5    6 ar
   9    5    9 1
  10    6   30 1
  11    7    8 1
  12    7   16 1
  13    8    9 ar
  14    8   10 ar
  15    9   13 ar
  16   10   11 ar
  17   10   31 1
  18   11   12 ar
  19   12   13 ar
  20   12   32 1
  21   13   33 1
  22   14   15 1
  23   14   34 1
  24   15   17 ar
  25   15   21 ar
  26   16   28 1
  27   16   29 1
  28   16   35 1
  29   17   18 ar
  30   18   19 ar
  31   18   36 1
  32   19   20 ar
  33   19   22 1
  34   20   21 ar
  35   20   37 1
  36   21   38 1
  37   22   23 1
  38   22   27 1
  39   23   24 1
  40   23   39 1
  41   23   40 1
  42   24   25 1
  43   24   41 1
  44   24   42 1
  45   25   26 1
  46   25   43 1
  47   26   27 1
  48   26   44 1
  49   26   45 1
  50   27   46 1
  51   27   47 1
  52   28   48 1
  53   28   49 1
  54   28   50 1
  55   29   51 1
  56   29   52 1
  57   29   53 1

#	End of record

