#	Name: ASD01148425
#	Creating user name:	WinNT
#	Creation time:	15. 06. 2019 19:02

#	Modifying user name:	WinNT
#	Modification time:	15. 06. 2019 19:02

#	Program:	/corina/corina34_cracker 3.40 0067  02.08.2006

@<TRIPOS>MOLECULE
ASD01148425
  49   51    0    0    0
SMALL
NO_CHARGES


@<TRIPOS>ATOM
   1 C1             0.3636     1.8416     0.0680 C.ar    
   2 C2             0.4620     0.4639    -0.0073 C.ar    
   3 C3            -0.6823    -0.3068    -0.0942 C.ar    
   4 C4            -1.9246     0.2990    -0.1059 C.ar    
   5 C5            -2.0236     1.6760    -0.0307 C.ar    
   6 C6            -0.8806     2.4472     0.0615 C.ar    
   7 C7            -3.3785     2.3358    -0.0436 C.3     
   8 O8            -4.3698     1.4909     0.5753 O.3     
   9 C9            -3.3995     3.5758     0.8817 C.3     
  10 C10           -3.9251     3.0055     2.1854 C.2     
  11 N11           -4.4446     1.8493     1.9409 N.2     
  12 C12           -3.8543     3.6600     3.5066 C.ar    
  13 C13           -4.3802     3.0205     4.6323 C.ar    
  14 C14           -3.2564     4.9163     3.6327 C.ar    
  15 C15           -3.1905     5.5266     4.8650 C.ar    
  16 C16           -3.7209     4.8896     5.9891 C.ar    
  17 C17           -4.3141     3.6309     5.8641 C.ar    
  18 C18           -3.6492     5.5445     7.3122 C.2     
  19 O19           -4.2070     5.0439     8.2692 O.2     
  20 N20           -2.9653     6.6967     7.4576 N.am    
  21 C21           -4.8867     2.9439     7.0770 C.3     
  22 C22           -3.7895     2.7084    -1.4694 C.3     
  23 F23           -3.8284     1.5549    -2.2600 F       
  24 F24           -5.0557     3.3030    -1.4494 F       
  25 F25           -2.8602     3.6080    -2.0026 F       
  26 Cl26           1.8002     2.8101     0.1778 Cl      
  27 C27           -2.8942     7.3458     8.7690 C.3     
  28 C28           -0.5752    -1.8077    -0.1767 C.3     
  29 F29            0.7726    -2.1814    -0.1481 F       
  30 F30           -1.2418    -2.3832     0.9104 F       
  31 F31           -1.1571    -2.2519    -1.3688 F       
  32 C32           -2.0646     8.6267     8.6597 C.3     
  33 F33           -2.6656     9.4947     7.7417 F       
  34 F34           -1.9967     9.2466     9.9120 F       
  35 F35           -0.7729     8.3102     8.2254 F       
  36 H36            1.4327    -0.0095     0.0015 H       
  37 H37           -2.8183    -0.3035    -0.1742 H       
  38 H38           -0.9580     3.5228     0.1202 H       
  39 H39           -2.3949     3.9781     1.0125 H       
  40 H40           -4.0749     4.3377     0.4925 H       
  41 H41           -4.8387     2.0474     4.5356 H       
  42 H42           -2.8456     5.4086     2.7636 H       
  43 H43           -2.7283     6.4978     4.9626 H       
  44 H44           -2.5201     7.0961     6.6939 H       
  45 H45           -5.8941     3.3160     7.2636 H       
  46 H46           -4.9232     1.8686     6.9023 H       
  47 H47           -4.2571     3.1503     7.9425 H       
  48 H48           -3.9005     7.5924     9.1073 H       
  49 H49           -2.4259     6.6696     9.4842 H       
@<TRIPOS>BOND
   1    1    2 ar
   2    1   26 1
   3    1    6 ar
   4    2    3 ar
   5    2   36 1
   6    3    4 ar
   7    3   28 1
   8    4    5 ar
   9    4   37 1
  10    5    6 ar
  11    5    7 1
  12    6   38 1
  13    7    8 1
  14    7    9 1
  15    7   22 1
  16    8   11 1
  17    9   10 1
  18    9   39 1
  19    9   40 1
  20   10   11 2
  21   10   12 1
  22   12   13 ar
  23   12   14 ar
  24   13   17 ar
  25   13   41 1
  26   14   15 ar
  27   14   42 1
  28   15   16 ar
  29   15   43 1
  30   16   17 ar
  31   16   18 1
  32   17   21 1
  33   18   19 2
  34   18   20 am
  35   20   27 1
  36   20   44 1
  37   21   45 1
  38   21   46 1
  39   21   47 1
  40   22   23 1
  41   22   24 1
  42   22   25 1
  43   27   32 1
  44   27   48 1
  45   27   49 1
  46   28   29 1
  47   28   30 1
  48   28   31 1
  49   32   33 1
  50   32   34 1
  51   32   35 1

#	End of record

