#	Name: ASD03430782
#	Creating user name:	WinNT
#	Creation time:	15. 06. 2019 20:41

#	Modifying user name:	WinNT
#	Modification time:	15. 06. 2019 20:41

#	Program:	/corina/corina34_cracker 3.40 0067  02.08.2006

@<TRIPOS>MOLECULE
ASD03430782
  50   56    0    0    0
SMALL
NO_CHARGES


@<TRIPOS>ATOM
   1 C1             0.4762     1.1177    -0.6122 C.ar    
   2 C2             0.4427    -0.2610    -0.4695 C.ar    
   3 C3             1.6087    -0.9653    -0.2559 C.ar    
   4 C4             2.8303    -0.3039    -0.1714 C.ar    
   5 C5             2.8609     1.0790    -0.3208 C.ar    
   6 C6             1.6916     1.7881    -0.5382 C.ar    
   7 C7             1.9025    -2.4318    -0.0864 C.3     
   8 C8             3.4244    -2.5103    -0.2702 C.3     
   9 C9             0.5922    -3.9939     0.9907 C.ar    
  10 C10            1.4727    -2.9499     1.2537 C.ar    
  11 C11            1.1764    -3.2789    -1.0918 C.2     
  12 N12            0.4406    -4.1624    -0.3881 N.am    
  13 O13            1.2394    -3.1862    -2.2994 O.2     
  14 C14            1.7759    -2.5965     2.5610 C.ar    
  15 C15            1.1950    -3.2939     3.6205 C.ar    
  16 C16            0.3228    -4.3315     3.3599 C.ar    
  17 C17            0.0205    -4.6818     2.0591 C.ar    
  18 O18            3.8494    -1.1771     0.0712 O.3     
  19 O19           -0.6839     1.7970    -0.8288 O.3     
  20 C20           -0.6547     3.2096    -0.5962 C.3     
  21 C21            0.6075     3.7786    -1.2583 C.3     
  22 O22            1.7479     3.1419    -0.6734 O.3     
  23 C23            2.7156    -1.4806     2.8312 C.ar    
  24 C24            2.4301    -0.1876     2.3655 C.ar    
  25 N25            3.2404     0.8158     2.5892 N.ar    
  26 C26            4.3796     0.6595     3.2719 C.ar    
  27 C27            4.7383    -0.6164     3.7751 C.ar    
  28 C28            3.8798    -1.7064     3.5506 C.ar    
  29 C29            5.2376     1.7492     3.5018 C.ar    
  30 C30            6.3919     1.5657     4.1990 C.ar    
  31 C31            6.7426     0.3107     4.6928 C.ar    
  32 C32            5.9385    -0.7689     4.4899 C.ar    
  33 H33           -0.4999    -0.7851    -0.5254 H       
  34 H34            3.8036     1.6032    -0.2663 H       
  35 H35            3.8593    -3.2416     0.4111 H       
  36 H36            3.6778    -2.7444    -1.3042 H       
  37 H37           -0.1283    -4.8364    -0.7919 H       
  38 H38            1.4269    -3.0233     4.6400 H       
  39 H39           -0.1267    -4.8728     4.1792 H       
  40 H40           -0.6640    -5.4950     1.8683 H       
  41 H41           -1.5396     3.6725    -1.0330 H       
  42 H42           -0.6278     3.4052     0.4757 H       
  43 H43            0.5841     3.5760    -2.3291 H       
  44 H44            0.6589     4.8540    -1.0882 H       
  45 H45            1.5204    -0.0166     1.8091 H       
  46 H46            4.1230    -2.6915     3.9206 H       
  47 H47            4.9817     2.7288     3.1260 H       
  48 H48            7.0471     2.4066     4.3721 H       
  49 H49            7.6647     0.1927     5.2426 H       
  50 H50            6.2207    -1.7367     4.8773 H       
@<TRIPOS>BOND
   1    1    2 ar
   2    1    6 ar
   3    1   19 1
   4    2    3 ar
   5    2   33 1
   6    3    4 ar
   7    3    7 1
   8    4    5 ar
   9    4   18 1
  10    5    6 ar
  11    5   34 1
  12    6   22 1
  13    7    8 1
  14    7   10 1
  15    7   11 1
  16    8   18 1
  17    8   35 1
  18    8   36 1
  19    9   10 ar
  20    9   12 1
  21    9   17 ar
  22   10   14 ar
  23   11   12 am
  24   11   13 2
  25   12   37 1
  26   14   15 ar
  27   14   23 1
  28   15   16 ar
  29   15   38 1
  30   16   17 ar
  31   16   39 1
  32   17   40 1
  33   19   20 1
  34   20   21 1
  35   20   41 1
  36   20   42 1
  37   21   22 1
  38   21   43 1
  39   21   44 1
  40   23   24 ar
  41   23   28 ar
  42   24   25 ar
  43   24   45 1
  44   25   26 ar
  45   26   27 ar
  46   26   29 ar
  47   27   28 ar
  48   27   32 ar
  49   28   46 1
  50   29   30 ar
  51   29   47 1
  52   30   31 ar
  53   30   48 1
  54   31   32 ar
  55   31   49 1
  56   32   50 1

#	End of record

