#	Name: ASD01916498
#	Creating user name:	WinNT
#	Creation time:	15. 06. 2019 20:07

#	Modifying user name:	WinNT
#	Modification time:	15. 06. 2019 20:07

#	Program:	/corina/corina34_cracker 3.40 0067  02.08.2006

@<TRIPOS>MOLECULE
ASD01916498
  31   32    0    0    0
SMALL
NO_CHARGES


@<TRIPOS>ATOM
   1 O1            -0.0144     1.2088     0.0087 O.3     
   2 N2             0.0021    -0.0041     0.0020 N.2     
   3 C3             1.2271    -0.4372    -0.0120 C.2     
   4 N4             2.0346     0.6383    -0.0139 N.2     
   5 C5             1.2366     1.6788    -0.0007 C.2     
   6 C6             1.6511     3.1277     0.0021 C.3     
   7 C7             1.7773     3.6249    -1.4393 C.3     
   8 C8             2.1821     5.0401    -1.4365 C.1     
   9 C9             2.5050     6.1689    -1.4343 C.1     
  10 C10            1.6630    -1.8798    -0.0239 C.3     
  11 C11            1.7953    -2.3528    -1.4486 C.ar    
  12 C12            2.9690    -2.1303    -2.1447 C.ar    
  13 C13            3.0903    -2.5641    -3.4513 C.ar    
  14 C14            2.0382    -3.2209    -4.0622 C.ar    
  15 C15            0.8652    -3.4441    -3.3661 C.ar    
  16 C16            0.7454    -3.0140    -2.0576 C.ar    
  17 C17            4.1158    -1.4144    -1.4789 C.3     
  18 H18            0.9003     3.7193     0.5261 H       
  19 H19            2.6116     3.2299     0.5072 H       
  20 H20            2.5281     3.0333    -1.9633 H       
  21 H21            0.8168     3.5227    -1.9444 H       
  22 H22            2.7937     7.1784    -1.4323 H       
  23 H23            2.6247    -1.9729     0.4806 H       
  24 H24            0.9209    -2.4878     0.4934 H       
  25 H25            4.0069    -2.3898    -3.9953 H       
  26 H26            2.1327    -3.5593    -5.0835 H       
  27 H27            0.0432    -3.9569    -3.8434 H       
  28 H28           -0.1698    -3.1917    -1.5124 H       
  29 H29            4.7605    -2.1416    -0.9851 H       
  30 H30            4.6896    -0.8707    -2.2294 H       
  31 H31            3.7269    -0.7132    -0.7405 H       
@<TRIPOS>BOND
   1    1    2 1
   2    1    5 1
   3    2    3 2
   4    3    4 1
   5    3   10 1
   6    4    5 2
   7    5    6 1
   8    6    7 1
   9    6   18 1
  10    6   19 1
  11    7    8 1
  12    7   20 1
  13    7   21 1
  14    8    9 3
  15    9   22 1
  16   10   11 1
  17   10   23 1
  18   10   24 1
  19   11   12 ar
  20   11   16 ar
  21   12   13 ar
  22   12   17 1
  23   13   14 ar
  24   13   25 1
  25   14   15 ar
  26   14   26 1
  27   15   16 ar
  28   15   27 1
  29   16   28 1
  30   17   29 1
  31   17   30 1
  32   17   31 1

#	End of record

