#	Name: ASD00960165
#	Creating user name:	WinNT
#	Creation time:	15. 06. 2019 18:53

#	Modifying user name:	WinNT
#	Modification time:	15. 06. 2019 18:53

#	Program:	/corina/corina34_cracker 3.40 0067  02.08.2006

@<TRIPOS>MOLECULE
ASD00960165
  45   47    0    0    0
SMALL
NO_CHARGES


@<TRIPOS>ATOM
   1 O1            -0.0173     1.4248     0.0099 O.3     
   2 O2            -2.3899     0.5001     0.0276 O.3     
   3 C3             0.0021    -0.0041     0.0020 C.3     
   4 C4            -1.4375    -0.5651     0.0127 C.3     
   5 C5            -1.5390    -1.3636    -1.3057 C.3     
   6 O6            -0.1754    -1.7075    -1.6348 O.3     
   7 C7             0.6000    -0.5300    -1.3217 C.3     
   8 C8             2.0731    -0.8974    -1.1319 C.3     
   9 C9            -2.3600    -2.6108    -1.1018 C.2     
  10 C10           -3.7156    -2.6822    -1.1703 C.2     
  11 N11           -1.8677    -3.8336    -0.8285 N.pl3   
  12 C12           -2.9262    -4.7151    -0.7123 C.2     
  13 C13           -4.0887    -4.0056    -0.9243 C.2     
  14 N14           -0.5692    -4.3310    -0.6549 N.2     
  15 C15           -0.3688    -5.5914    -0.3911 C.2     
  16 N16           -1.3559    -6.4741    -0.2706 N.2     
  17 C17           -2.6276    -6.1149    -0.4142 C.2     
  18 O18            2.6177    -1.3406    -2.3765 O.3     
  19 N19           -3.6280    -7.0289    -0.2881 N.2     
  20 C20           -1.6454    -1.4851     1.2175 C.3     
  21 C21           -3.3436    -8.2767    -0.0228 C.2     
  22 N22           -4.3446    -9.1912     0.1034 N.pl3   
  23 C23           -5.7403    -8.7765    -0.0583 C.3     
  24 C24           -4.0258   -10.5898     0.4007 C.3     
  25 H25            0.8606     1.8301     0.0037 H       
  26 H26           -2.3300     1.0705     0.8061 H       
  27 H27            0.5657    -0.3821     0.8550 H       
  28 H28           -1.9746    -0.7458    -2.0910 H       
  29 H29            0.4925     0.2157    -2.1094 H       
  30 H30            2.6238    -0.0230    -0.7851 H       
  31 H31            2.1564    -1.6954    -0.3941 H       
  32 H32           -4.3856    -1.8610    -1.3776 H       
  33 H33           -5.0949    -4.3975    -0.9038 H       
  34 H34            0.6471    -5.9354    -0.2647 H       
  35 H35            3.5507    -1.5906    -2.3308 H       
  36 H36           -1.5027    -0.9174     2.1370 H       
  37 H37           -2.6567    -1.8911     1.1943 H       
  38 H38           -0.9249    -2.3021     1.1793 H       
  39 H39           -2.3146    -8.5824     0.0964 H       
  40 H40           -6.0297    -8.8746    -1.1046 H       
  41 H41           -6.3808    -9.4088     0.5567 H       
  42 H42           -5.8490    -7.7375     0.2529 H       
  43 H43           -3.4952   -10.6474     1.3511 H       
  44 H44           -4.9481   -11.1672     0.4640 H       
  45 H45           -3.3968   -10.9955    -0.3917 H       
@<TRIPOS>BOND
   1    1    3 1
   2    1   25 1
   3    2    4 1
   4    2   26 1
   5    3    4 1
   6    3    7 1
   7    3   27 1
   8    4   20 1
   9    4    5 1
  10    5    6 1
  11    5    9 1
  12    5   28 1
  13    6    7 1
  14    7    8 1
  15    7   29 1
  16    8   18 1
  17    8   30 1
  18    8   31 1
  19    9   10 2
  20    9   11 1
  21   10   13 1
  22   10   32 1
  23   11   12 1
  24   11   14 1
  25   12   13 2
  26   12   17 1
  27   13   33 1
  28   14   15 2
  29   15   16 1
  30   15   34 1
  31   16   17 2
  32   17   19 1
  33   18   35 1
  34   19   21 2
  35   20   36 1
  36   20   37 1
  37   20   38 1
  38   21   22 1
  39   21   39 1
  40   22   23 1
  41   22   24 1
  42   23   40 1
  43   23   41 1
  44   23   42 1
  45   24   43 1
  46   24   44 1
  47   24   45 1

#	End of record

