#	Name: ASD01918544
#	Creating user name:	WinNT
#	Creation time:	15. 06. 2019 20:11

#	Modifying user name:	WinNT
#	Modification time:	15. 06. 2019 20:11

#	Program:	/corina/corina34_cracker 3.40 0067  02.08.2006

@<TRIPOS>MOLECULE
ASD01918544
  47   49    0    0    0
SMALL
NO_CHARGES


@<TRIPOS>ATOM
   1 C1            -0.0187     1.5258     0.0104 C.3     
   2 C2             0.0021    -0.0041     0.0020 C.3     
   3 C3             0.7182    -0.4975    -1.2568 C.3     
   4 C4             0.7421    -0.5109     1.2415 C.3     
   5 C5            -0.0416    -0.1236     2.4973 C.3     
   6 C6             0.6704    -0.6113     3.6898 C.1     
   7 C7             1.2382    -1.0002     4.6409 C.1     
   8 C8             1.9308    -1.4745     5.8010 C.ar    
   9 C9             3.1348    -2.1676     5.6743 C.ar    
  10 N10            3.7720    -2.6040     6.7412 N.ar    
  11 C11            3.3065    -2.4073     7.9595 C.ar    
  12 C12            2.1194    -1.7286     8.1694 C.ar    
  13 C13            1.4141    -1.2455     7.0814 C.ar    
  14 C14            1.6025    -1.5135     9.5685 C.3     
  15 H15            0.5323    -1.3073     9.5526 H       
  16 N16            1.8907    -2.6839    10.4115 N.am    
  17 C17            2.6848    -2.3053    11.4224 C.2     
  18 O18            3.0827    -3.0728    12.2762 O.2     
  19 O19            3.0000    -1.0054    11.4051 O.3     
  20 C20            2.3649    -0.3647    10.2566 C.3     
  21 H21            3.1168     0.0507     9.5856 H       
  22 C22            1.4080     0.7081    10.7089 C.ar    
  23 C23            0.7739     0.5973    11.9321 C.ar    
  24 C24           -0.1043     1.5808    12.3484 C.ar    
  25 C25           -0.3490     2.6757    11.5418 C.ar    
  26 C26            0.2861     2.7880    10.3163 C.ar    
  27 F27            0.0476     3.8581     9.5269 F       
  28 C28            1.1691     1.8053     9.9029 C.ar    
  29 H29            1.0039     1.9031     0.0027 H       
  30 H30           -0.5459     1.8868    -0.8726 H       
  31 H31           -0.5289     1.8773     0.9072 H       
  32 H32           -1.0205    -0.3814     0.0098 H       
  33 H33            1.7408    -0.1202    -1.2645 H       
  34 H34            0.7330    -1.5874    -1.2628 H       
  35 H35            0.1910    -0.1364    -2.1398 H       
  36 H36            0.8346    -1.5958     1.1912 H       
  37 H37            1.7350    -0.0630     1.2804 H       
  38 H38           -0.1341     0.9613     2.5476 H       
  39 H39           -1.0345    -0.5716     2.4584 H       
  40 H40            3.5477    -2.3482     4.6928 H       
  41 H41            3.8609    -2.7825     8.8071 H       
  42 H42            0.4866    -0.7089     7.2166 H       
  43 H43            1.5596    -3.5831    10.2606 H       
  44 H44            0.9643    -0.2584    12.5630 H       
  45 H45           -0.5994     1.4930    13.3041 H       
  46 H46           -1.0355     3.4434    11.8669 H       
  47 H47            1.6681     1.8939     8.9492 H       
@<TRIPOS>BOND
   1    1    2 1
   2    1   29 1
   3    1   30 1
   4    1   31 1
   5    2    3 1
   6    2    4 1
   7    2   32 1
   8    3   33 1
   9    3   34 1
  10    3   35 1
  11    4    5 1
  12    4   36 1
  13    4   37 1
  14    5    6 1
  15    5   38 1
  16    5   39 1
  17    6    7 3
  18    7    8 1
  19    8   13 ar
  20    8    9 ar
  21    9   10 ar
  22    9   40 1
  23   10   11 ar
  24   11   12 ar
  25   11   41 1
  26   12   13 ar
  27   12   14 1
  28   13   42 1
  29   14   15 1
  30   14   20 1
  31   14   16 1
  32   16   17 am
  33   16   43 1
  34   17   18 2
  35   17   19 1
  36   19   20 1
  37   20   21 1
  38   20   22 1
  39   22   28 ar
  40   22   23 ar
  41   23   24 ar
  42   23   44 1
  43   24   25 ar
  44   24   45 1
  45   25   26 ar
  46   25   46 1
  47   26   27 1
  48   26   28 ar
  49   28   47 1

#	End of record

