#	Name: ASD00431360
#	Creating user name:	WinNT
#	Creation time:	15. 06. 2019 18:35

#	Modifying user name:	WinNT
#	Modification time:	15. 06. 2019 18:35

#	Program:	/corina/corina34_cracker 3.40 0067  02.08.2006

@<TRIPOS>MOLECULE
ASD00431360
  44   47    0    0    0
SMALL
NO_CHARGES


@<TRIPOS>ATOM
   1 C1            -0.8226     7.8745     5.7413 C.3     
   2 C2            -1.7835     7.7729     4.5551 C.3     
   3 O3             1.1688     9.1396     4.7850 O.3     
   4 N4             2.3127     8.9509     4.4420 N.2     
   5 C5             2.6604     7.6957     4.6077 C.2     
   6 C6             1.5152     7.0368     5.1422 C.2     
   7 C7             0.5892     8.0165     5.2335 C.2     
   8 S8             4.4122     5.3993     4.5335 S.3     
   9 C9             5.9820     5.7146     3.9349 C.2     
  10 N10            6.0989     6.9666     3.6147 N.2     
  11 C11            5.0457     7.7325     3.7970 C.2     
  12 C12            3.9721     7.0896     4.3022 C.2     
  13 O13            6.9637     4.7897     3.8124 O.3     
  14 C14            8.1945     5.2134     3.4199 C.ar    
  15 C15            9.0231     5.8669     4.3205 C.ar    
  16 C16           10.2734     6.2973     3.9217 C.ar    
  17 C17           10.7006     6.0762     2.6207 C.ar    
  18 C18            9.8722     5.4229     1.7201 C.ar    
  19 C19            8.6242     4.9874     2.1203 C.ar    
  20 O20           11.9314     6.5004     2.2280 O.3     
  21 C21           12.3061     6.2392     0.8739 C.3     
  22 C22           13.7125     6.7854     0.6196 C.3     
  23 C23           14.3447     6.5011    -0.7444 C.3     
  24 C24           13.8582     7.9116    -0.4058 C.3     
  25 N25           -1.1707     9.0473     6.5545 N.3     
  26 H26           -0.9007     6.9739     6.3504 H       
  27 H27           -1.5251     6.9027     3.9517 H       
  28 H28           -2.8046     7.6702     4.9224 H       
  29 H29           -1.7053     8.6735     3.9460 H       
  30 H30            1.4116     5.9961     5.4117 H       
  31 H31            5.0403     8.7867     3.5622 H       
  32 H32            8.6903     6.0393     5.3334 H       
  33 H33           10.9183     6.8063     4.6227 H       
  34 H34           10.2049     5.2512     0.7070 H       
  35 H35            7.9810     4.4747     1.4204 H       
  36 H36           12.2960     5.1641     0.6951 H       
  37 H37           11.6001     6.7261     0.2012 H       
  38 H38           14.3731     6.8049     1.4863 H       
  39 H39           15.4214     6.3339    -0.7750 H       
  40 H40           13.7588     5.9249    -1.4604 H       
  41 H41           12.9521     8.2634    -0.8992 H       
  42 H42           14.6148     8.6724    -0.2137 H       
  43 H43           -1.0440     9.9006     6.0312 H       
  44 H44           -2.1135     8.9759     6.9070 H       
@<TRIPOS>BOND
   1    1    2 1
   2    1    7 1
   3    1   25 1
   4    1   26 1
   5    2   27 1
   6    2   28 1
   7    2   29 1
   8    3    4 1
   9    3    7 1
  10    4    5 2
  11    5    6 1
  12    5   12 1
  13    6    7 2
  14    6   30 1
  15    8    9 1
  16    8   12 1
  17    9   10 2
  18    9   13 1
  19   10   11 1
  20   11   12 2
  21   11   31 1
  22   13   14 1
  23   14   15 ar
  24   14   19 ar
  25   15   16 ar
  26   15   32 1
  27   16   17 ar
  28   16   33 1
  29   17   18 ar
  30   17   20 1
  31   18   19 ar
  32   18   34 1
  33   19   35 1
  34   20   21 1
  35   21   22 1
  36   21   36 1
  37   21   37 1
  38   22   23 1
  39   22   24 1
  40   22   38 1
  41   23   24 1
  42   23   39 1
  43   23   40 1
  44   24   41 1
  45   24   42 1
  46   25   43 1
  47   25   44 1

#	End of record

