#	Name: ASD03330292
#	Creating user name:	WinNT
#	Creation time:	15. 06. 2019 20:37

#	Modifying user name:	WinNT
#	Modification time:	15. 06. 2019 20:37

#	Program:	/corina/corina34_cracker 3.40 0067  02.08.2006

@<TRIPOS>MOLECULE
ASD03330292
  69   71    0    0    0
SMALL
NO_CHARGES


@<TRIPOS>ATOM
   1 C1             0.8581     0.0581     0.7249 C.3     
   2 N2             0.3085    -1.3050     0.7246 N.3     
   3 C3             0.7028    -2.0375    -0.4923 C.3     
   4 C4             2.1930    -1.8906    -0.6621 C.2     
   5 N5             2.9387    -0.9631    -0.0063 N.pl3   
   6 C6             2.3763     0.0059     0.9386 C.3     
   7 C7             3.0377    -2.6030    -1.4487 C.2     
   8 N8             4.2837    -2.1095    -1.2653 N.2     
   9 C9             4.2300    -1.1234    -0.3980 C.2     
  10 C10            5.3817    -0.3227     0.0727 C.ar    
  11 C11            6.5931    -0.3647    -0.6180 C.ar    
  12 C12            2.6652    -3.7143    -2.3420 C.2     
  13 O13            1.5043    -4.0683    -2.4208 O.2     
  14 C14            3.2407    -5.4432    -3.9598 C.3     
  15 N15            3.6110    -4.3384    -3.0717 N.am    
  16 C16            2.7799    -4.8823    -5.3066 C.3     
  17 C17           -1.1525    -1.2836     0.8760 C.3     
  18 C18            4.4335    -6.3397    -4.1705 C.2     
  19 O19            5.5536    -5.8753    -4.1430 O.2     
  20 N20            4.2556    -7.6576    -4.3896 N.am    
  21 C21            5.4058    -8.5104    -4.6997 C.3     
  22 C22            7.6632     0.3847    -0.1742 C.ar    
  23 C23            7.5368     1.1766     0.9531 C.ar    
  24 C24            6.3382     1.2225     1.6425 C.ar    
  25 C25            5.2590     0.4819     1.2058 C.ar    
  26 C26            3.8662    -3.9683    -5.8770 C.3     
  27 C27            2.5222    -6.0359    -6.2781 C.3     
  28 C28            1.4906    -4.0820    -5.1116 C.3     
  29 C29            2.9122    -8.2373    -4.3176 C.3     
  30 C30           -1.7898    -0.7352    -0.4024 C.3     
  31 C31           -3.2768    -1.0945    -0.4257 C.3     
  32 C32           -1.6321     0.7862    -0.4387 C.3     
  33 H33            0.6428     0.5358    -0.2309 H       
  34 H34            0.3986     0.6338     1.5283 H       
  35 H35            0.4461    -3.0916    -0.3872 H       
  36 H36            0.1902    -1.6173    -1.3576 H       
  37 H37            2.8074     0.9903     0.7561 H       
  38 H38            2.5934    -0.3076     1.9597 H       
  39 H39            6.6931    -0.9828    -1.4980 H       
  40 H40            2.4307    -6.0162    -3.5085 H       
  41 H41            4.5369    -4.0561    -3.0089 H       
  42 H42           -1.5140    -2.2959     1.0567 H       
  43 H43           -1.4212    -0.6460     1.7183 H       
  44 H44            5.8244    -8.9065    -3.7745 H       
  45 H45            5.0853    -9.3354    -5.3360 H       
  46 H46            6.1634    -7.9238    -5.2194 H       
  47 H47            8.6016     0.3528    -0.7079 H       
  48 H48            8.3774     1.7611     1.2967 H       
  49 H49            6.2457     1.8427     2.5218 H       
  50 H50            4.3238     0.5186     1.7448 H       
  51 H51            4.7847    -4.5384    -6.0159 H       
  52 H52            3.5379    -3.5687    -6.8365 H       
  53 H53            4.0498    -3.1465    -5.1849 H       
  54 H54            1.6943    -6.6423    -5.9107 H       
  55 H55            2.2709    -5.6348    -7.2600 H       
  56 H56            3.4177    -6.6524    -6.3558 H       
  57 H57            1.6742    -3.2602    -4.4195 H       
  58 H58            1.1623    -3.6825    -6.0712 H       
  59 H59            0.7167    -4.7333    -4.7053 H       
  60 H60            2.1793    -7.4410    -4.1876 H       
  61 H61            2.7004    -8.7791    -5.2394 H       
  62 H62            2.8572    -8.9232    -3.4723 H       
  63 H63           -1.2967    -1.1724    -1.2706 H       
  64 H64           -3.7699    -0.6573     0.4425 H       
  65 H65           -3.7307    -0.7038    -1.3364 H       
  66 H66           -3.3891    -2.1784    -0.3998 H       
  67 H67           -1.8064     1.1935     0.5573 H       
  68 H68           -0.6227     1.0393    -0.7632 H       
  69 H69           -2.3548     1.2099    -1.1360 H       
@<TRIPOS>BOND
   1    1    2 1
   2    1    6 1
   3    1   33 1
   4    1   34 1
   5    2    3 1
   6    2   17 1
   7    3    4 1
   8    3   35 1
   9    3   36 1
  10    4    5 1
  11    4    7 2
  12    5    6 1
  13    5    9 1
  14    6   37 1
  15    6   38 1
  16    7    8 1
  17    7   12 1
  18    8    9 2
  19    9   10 1
  20   10   11 ar
  21   10   25 ar
  22   11   22 ar
  23   11   39 1
  24   12   13 2
  25   12   15 am
  26   14   15 1
  27   14   18 1
  28   14   16 1
  29   14   40 1
  30   15   41 1
  31   16   26 1
  32   16   27 1
  33   16   28 1
  34   17   30 1
  35   17   42 1
  36   17   43 1
  37   18   19 2
  38   18   20 am
  39   20   21 1
  40   20   29 1
  41   21   44 1
  42   21   45 1
  43   21   46 1
  44   22   23 ar
  45   22   47 1
  46   23   24 ar
  47   23   48 1
  48   24   25 ar
  49   24   49 1
  50   25   50 1
  51   26   51 1
  52   26   52 1
  53   26   53 1
  54   27   54 1
  55   27   55 1
  56   27   56 1
  57   28   57 1
  58   28   58 1
  59   28   59 1
  60   29   60 1
  61   29   61 1
  62   29   62 1
  63   30   31 1
  64   30   32 1
  65   30   63 1
  66   31   64 1
  67   31   65 1
  68   31   66 1
  69   32   67 1
  70   32   68 1
  71   32   69 1

#	End of record

