#	Name: ASD08150058
#	Creating user name:	WinNT
#	Creation time:	15. 06. 2019 21:15

#	Modifying user name:	WinNT
#	Modification time:	15. 06. 2019 21:15

#	Program:	/corina/corina34_cracker 3.40 0067  02.08.2006

@<TRIPOS>MOLECULE
ASD08150058
  55   58    0    0    0
SMALL
NO_CHARGES


@<TRIPOS>ATOM
   1 O1             0.8685     1.4409    -1.2652 O.3     
   2 C2             1.2254     0.1541    -1.3450 C.2     
   3 N3             1.2988    -0.4627    -0.1577 N.am    
   4 C4             0.9526     0.4987     0.9004 C.3     
   5 C5             0.6591     1.8012     0.1310 C.3     
   6 O6             1.4610    -0.4044    -2.3980 O.2     
   7 C7             1.6325     2.9039     0.5521 C.3     
   8 C8             2.1311     0.6933     1.8564 C.3     
   9 O9             2.3707    -0.5212     2.5704 O.3     
  10 C10            3.2624    -3.4258     0.2862 C.ar    
  11 N11            2.3576    -4.3797     0.4277 N.ar    
  12 C12            1.0546    -4.0980     0.3846 C.ar    
  13 C13            0.6543    -2.7730     0.1868 C.ar    
  14 C14            1.6455    -1.7965     0.0419 C.ar    
  15 N15            2.9220    -2.1596     0.0971 N.ar    
  16 C16           -1.7743    -7.1156     0.8313 C.ar    
  17 N17           -0.8492    -7.2402    -0.1000 N.ar    
  18 C18            0.0683    -6.3053    -0.2761 C.ar    
  19 C19            0.0465    -5.1730     0.5436 C.ar    
  20 C20           -0.9520    -5.0831     1.5174 C.ar    
  21 N21           -1.8308    -6.0648     1.6252 N.ar    
  22 C22            1.1215    -6.4578    -1.3432 C.3     
  23 F23            0.8290    -7.5765    -2.1307 F       
  24 F24            1.1396    -5.3132    -2.1474 F       
  25 F25            2.3736    -6.6252    -0.7420 F       
  26 N26            4.6073    -3.7599     0.3430 N.3     
  27 C27            5.2883    -3.0227     1.4172 C.3     
  28 C28            6.7527    -3.4647     1.4832 C.3     
  29 O29            7.3666    -3.2546     0.2087 O.3     
  30 C30            6.7290    -3.9585    -0.8605 C.3     
  31 C31            5.2645    -3.5215    -0.9502 C.3     
  32 C32            4.6045    -3.3191     2.7534 C.3     
  33 N33           -0.7033    -2.4325     0.1345 N.pl3   
  34 H34            0.0678     0.1676     1.4441 H       
  35 H35           -0.3713     2.1171     0.2937 H       
  36 H36            1.4559     3.7943    -0.0512 H       
  37 H37            1.4787     3.1418     1.6047 H       
  38 H38            2.6564     2.5611     0.4030 H       
  39 H39            3.0208     0.9613     1.2866 H       
  40 H40            1.8983     1.4901     2.5628 H       
  41 H41            3.1061    -0.4709     3.1964 H       
  42 H42           -2.5113    -7.8969     0.9444 H       
  43 H43           -1.0050    -4.2251     2.1712 H       
  44 H44            5.2398    -1.9533     1.2122 H       
  45 H45            7.2756    -2.8799     2.2400 H       
  46 H46            6.8023    -4.5226     1.7412 H       
  47 H47            7.2349    -3.7309    -1.7988 H       
  48 H48            6.7780    -5.0307    -0.6707 H       
  49 H49            4.7599    -4.0968    -1.7265 H       
  50 H50            5.2156    -2.4601    -1.1931 H       
  51 H51            4.5713    -4.3968     2.9134 H       
  52 H52            5.1658    -2.8491     3.5610 H       
  53 H53            3.5893    -2.9227     2.7379 H       
  54 H54           -1.3796    -3.1105     0.2886 H       
  55 H55           -0.9671    -1.5187    -0.0559 H       
@<TRIPOS>BOND
   1    1    2 1
   2    1    5 1
   3    2    3 am
   4    2    6 2
   5    3    4 1
   6    3   14 1
   7    4    5 1
   8    4    8 1
   9    4   34 1
  10    5    7 1
  11    5   35 1
  12    7   36 1
  13    7   37 1
  14    7   38 1
  15    8    9 1
  16    8   39 1
  17    8   40 1
  18    9   41 1
  19   10   11 ar
  20   10   15 ar
  21   10   26 1
  22   11   12 ar
  23   12   13 ar
  24   12   19 1
  25   13   14 ar
  26   13   33 1
  27   14   15 ar
  28   16   17 ar
  29   16   21 ar
  30   16   42 1
  31   17   18 ar
  32   18   19 ar
  33   18   22 1
  34   19   20 ar
  35   20   21 ar
  36   20   43 1
  37   22   23 1
  38   22   24 1
  39   22   25 1
  40   26   27 1
  41   26   31 1
  42   27   28 1
  43   27   32 1
  44   27   44 1
  45   28   29 1
  46   28   45 1
  47   28   46 1
  48   29   30 1
  49   30   31 1
  50   30   47 1
  51   30   48 1
  52   31   49 1
  53   31   50 1
  54   32   51 1
  55   32   52 1
  56   32   53 1
  57   33   54 1
  58   33   55 1

#	End of record

