#	Name: ASD01814156
#	Creating user name:	WinNT
#	Creation time:	15. 06. 2019 19:31

#	Modifying user name:	WinNT
#	Modification time:	15. 06. 2019 19:31

#	Program:	/corina/corina34_cracker 3.40 0067  02.08.2006

@<TRIPOS>MOLECULE
ASD01814156
  33   35    0    0    0
SMALL
NO_CHARGES


@<TRIPOS>ATOM
   1 C1             0.0096     1.4233    -0.0741 C.2     
   2 C2             0.0180     0.0242    -0.0873 C.2     
   3 C3             1.2136    -0.6393    -0.0731 C.2     
   4 C4             2.4060     0.0913    -0.0457 C.2     
   5 N5             2.3708     1.4557    -0.0329 N.am    
   6 C6             1.1763     2.1098    -0.0476 C.2     
   7 C7             3.6472    -0.5955    -0.0308 C.2     
   8 C8             4.8371     0.1355    -0.0034 C.2     
   9 C9             4.7717     1.5310     0.0086 C.2     
  10 C10            3.5116     2.1725    -0.0062 C.2     
  11 O11            3.4567     3.3893     0.0039 O.2     
  12 C12            6.0039     2.3266     0.0374 C.2     
  13 O13            5.9367     3.6735     0.0490 O.3     
  14 O14            7.0858     1.7716     0.0509 O.2     
  15 C15            3.6807    -2.0621    -0.0436 C.2     
  16 C16            4.2328    -2.7788    -1.2131 C.ar    
  17 O17            3.2541    -2.6889     0.9086 O.2     
  18 C18            4.3733    -4.1675    -1.1822 C.ar    
  19 C19            4.8886    -4.8300    -2.2769 C.ar    
  20 C20            5.2659    -4.1212    -3.4039 C.ar    
  21 C21            5.1298    -2.7447    -3.4410 C.ar    
  22 C22            4.6105    -2.0704    -2.3554 C.ar    
  23 H23           -0.9294     1.9568    -0.0897 H       
  24 H24           -0.9108    -0.5264    -0.1081 H       
  25 H25            1.2370    -1.7190    -0.0826 H       
  26 H26            1.1595     3.1896    -0.0370 H       
  27 H27            5.7916    -0.3696     0.0086 H       
  28 H28            6.7753     4.1547     0.0680 H       
  29 H29            4.0795    -4.7218    -0.3031 H       
  30 H30            4.9981    -5.9042    -2.2542 H       
  31 H31            5.6688    -4.6448    -4.2583 H       
  32 H32            5.4269    -2.1975    -4.3234 H       
  33 H33            4.5045    -0.9961    -2.3857 H       
@<TRIPOS>BOND
   1    1    2 1
   2    1    6 2
   3    1   23 1
   4    2    3 2
   5    2   24 1
   6    3    4 1
   7    3   25 1
   8    4    5 1
   9    4    7 2
  10    5    6 1
  11    5   10 am
  12    6   26 1
  13    7    8 1
  14    7   15 1
  15    8    9 2
  16    8   27 1
  17    9   10 1
  18    9   12 1
  19   10   11 2
  20   12   13 1
  21   12   14 2
  22   13   28 1
  23   15   16 1
  24   15   17 2
  25   16   18 ar
  26   16   22 ar
  27   18   19 ar
  28   18   29 1
  29   19   20 ar
  30   19   30 1
  31   20   21 ar
  32   20   31 1
  33   21   22 ar
  34   21   32 1
  35   22   33 1

#	End of record

