#	Name: ASD01320034
#	Creating user name:	WinNT
#	Creation time:	15. 06. 2019 19:15

#	Modifying user name:	WinNT
#	Modification time:	15. 06. 2019 19:15

#	Program:	/corina/corina34_cracker 3.40 0067  02.08.2006

@<TRIPOS>MOLECULE
ASD01320034
  45   48    0    0    0
SMALL
NO_CHARGES


@<TRIPOS>ATOM
   1 C1            -0.0164     1.3552     0.0095 C.2     
   2 C2             0.0021    -0.0041     0.0020 C.2     
   3 C3             1.2436    -0.6848    -0.0135 C.2     
   4 C4             2.4664     0.1363    -0.0208 C.ar    
   5 C5             2.3338     1.5335    -0.0120 C.ar    
   6 O6             1.1061     2.0913     0.0027 O.3     
   7 C7             3.7377    -0.4534    -0.0356 C.ar    
   8 C8             4.8671     0.3464    -0.0417 C.ar    
   9 C9             4.7469     1.7287    -0.0331 C.ar    
  10 C10            3.4834     2.3314    -0.0188 C.ar    
  11 O11            1.2983    -1.9038    -0.0202 O.2     
  12 C12            2.7686     5.9488    -1.1029 C.3     
  13 C13            3.2937     4.5281    -1.3250 C.3     
  14 C14            3.3643     3.8026    -0.0102 C.2     
  15 C15            3.3237     4.4261     1.1483 C.2     
  16 C16            3.1960     5.9173     1.2714 C.3     
  17 N17            3.5315     6.5632    -0.0039 N.3     
  18 C18            3.2901     8.0108     0.0596 C.3     
  19 O19            5.8620     2.5018    -0.0388 O.3     
  20 O20            3.8609    -1.8045    -0.0436 O.3     
  21 C21           -1.3201     2.0479     0.0194 C.ar    
  22 C22           -1.3726     3.4437     0.0272 C.ar    
  23 C23           -2.5934     4.0847     0.0364 C.ar    
  24 C24           -3.7661     3.3474     0.0384 C.ar    
  25 C25           -3.7207     1.9631     0.0311 C.ar    
  26 C26           -2.5063     1.3102     0.0151 C.ar    
  27 Cl27          -5.2991     4.1620     0.0507 Cl      
  28 H28           -0.9234    -0.5607     0.0082 H       
  29 H29            5.8470    -0.1077    -0.0528 H       
  30 H30            2.9010     6.5344    -2.0126 H       
  31 H31            1.7118     5.9114    -0.8388 H       
  32 H32            2.6227     3.9946    -1.9981 H       
  33 H33            4.2888     4.5744    -1.7675 H       
  34 H34            3.3847     3.8380     2.0521 H       
  35 H35            2.1720     6.1705     1.5459 H       
  36 H36            3.8739     6.2749     2.0465 H       
  37 H37            2.2287     8.1952     0.2251 H       
  38 H38            3.8657     8.4395     0.8800 H       
  39 H39            3.5969     8.4718    -0.8792 H       
  40 H40            6.1774     2.7306    -0.9238 H       
  41 H41            3.8883    -2.1918    -0.9292 H       
  42 H42           -0.4590     4.0196     0.0264 H       
  43 H43           -2.6354     5.1639     0.0425 H       
  44 H44           -4.6385     1.3938     0.0331 H       
  45 H45           -2.4722     0.2308     0.0046 H       
@<TRIPOS>BOND
   1    1    2 2
   2    1    6 1
   3    1   21 1
   4    2    3 1
   5    2   28 1
   6    3    4 1
   7    3   11 2
   8    4    5 ar
   9    4    7 ar
  10    5    6 1
  11    5   10 ar
  12    7    8 ar
  13    7   20 1
  14    8    9 ar
  15    8   29 1
  16    9   10 ar
  17    9   19 1
  18   10   14 1
  19   12   13 1
  20   12   17 1
  21   12   30 1
  22   12   31 1
  23   13   14 1
  24   13   32 1
  25   13   33 1
  26   14   15 2
  27   15   16 1
  28   15   34 1
  29   16   17 1
  30   16   35 1
  31   16   36 1
  32   17   18 1
  33   18   37 1
  34   18   38 1
  35   18   39 1
  36   19   40 1
  37   20   41 1
  38   21   22 ar
  39   21   26 ar
  40   22   23 ar
  41   22   42 1
  42   23   24 ar
  43   23   43 1
  44   24   25 ar
  45   24   27 1
  46   25   26 ar
  47   25   44 1
  48   26   45 1

#	End of record

