#	Name: ASD01912479
#	Creating user name:	WinNT
#	Creation time:	15. 06. 2019 19:59

#	Modifying user name:	WinNT
#	Modification time:	15. 06. 2019 19:59

#	Program:	/corina/corina34_cracker 3.40 0067  02.08.2006

@<TRIPOS>MOLECULE
ASD01912479
  58   62    0    0    0
SMALL
NO_CHARGES


@<TRIPOS>ATOM
   1 C1             0.0814     1.4004     0.2215 C.ar    
   2 C2             0.0898     0.0169     0.2646 C.ar    
   3 C3             1.2521    -0.6643    -0.0897 C.ar    
   4 N4             2.3368     0.0021    -0.4636 N.ar    
   5 C5             2.3557     1.3185    -0.5133 C.ar    
   6 C6             1.2372     2.0578    -0.1751 C.ar    
   7 C7             1.2774    -2.1471    -0.0483 C.2     
   8 N8             0.2752    -2.9262     0.3025 N.2     
   9 C9             2.3731    -2.9612    -0.3825 C.2     
  10 C10            1.9934    -4.2603    -0.2141 C.2     
  11 N11            0.6971    -4.2585     0.2099 N.pl3   
  12 C12            2.8341    -5.4549    -0.4517 C.ar    
  13 C13           -0.1116    -5.4415     0.5143 C.3     
  14 C14           -0.0316    -5.7386     1.9895 C.2     
  15 N15           -0.7011    -6.7899     2.5025 N.am    
  16 O16            0.6352    -5.0318     2.7152 O.2     
  17 C17           -0.6368    -7.0976     3.9393 C.3     
  18 C18           -1.5204    -7.6561     1.6413 C.3     
  19 C19           -2.9136    -7.7859     2.2660 C.3     
  20 N20           -2.7827    -8.2384     3.6574 N.3     
  21 C21           -2.0666    -7.2505     4.4688 C.3     
  22 C22           -4.0215    -8.5229     4.2051 C.ar    
  23 N23           -4.0927    -8.9461     5.4586 N.ar    
  24 N24           -5.1085    -8.3603     3.4652 N.ar    
  25 C25           -6.3076    -8.6227     3.9584 C.ar    
  26 C26           -6.4178    -9.0723     5.2649 C.ar    
  27 C27           -5.2608    -9.2263     6.0124 C.ar    
  28 C28            1.2732     3.5631    -0.2366 C.3     
  29 C29            3.9316    -5.3797    -1.3094 C.ar    
  30 C30            4.7118    -6.4968    -1.5263 C.ar    
  31 C31            4.4073    -7.6899    -0.8956 C.ar    
  32 C32            3.3202    -7.7709    -0.0439 C.ar    
  33 C33            2.5356    -6.6593     0.1858 C.ar    
  34 H34           -0.8063     1.9556     0.4863 H       
  35 H35           -0.7923    -0.5268     0.5690 H       
  36 H36            3.2569     1.8271    -0.8224 H       
  37 H37            3.3426    -2.6193    -0.7136 H       
  38 H38           -1.1489    -5.2537     0.2372 H       
  39 H39            0.2663    -6.2947    -0.0492 H       
  40 H40           -0.0889    -8.0277     4.0903 H       
  41 H41           -0.1363    -6.2849     4.4657 H       
  42 H42           -1.6039    -7.2125     0.6491 H       
  43 H43           -1.0590    -8.6409     1.5675 H       
  44 H44           -3.4138    -6.8177     2.2439 H       
  45 H45           -3.4993    -8.5113     1.7012 H       
  46 H46           -2.0322    -7.5871     5.5050 H       
  47 H47           -2.5827    -6.2920     4.4143 H       
  48 H48           -7.1900    -8.4879     3.3505 H       
  49 H49           -7.3845    -9.2936     5.6925 H       
  50 H50           -5.3121    -9.5747     7.0334 H       
  51 H51            0.9650     3.8937    -1.2285 H       
  52 H52            0.5939     3.9736     0.5105 H       
  53 H53            2.2867     3.9108    -0.0364 H       
  54 H54            4.1699    -4.4490    -1.8029 H       
  55 H55            5.5618    -6.4399    -2.1902 H       
  56 H56            5.0206    -8.5617    -1.0692 H       
  57 H57            3.0873    -8.7052     0.4453 H       
  58 H58            1.6874    -6.7237     0.8512 H       
@<TRIPOS>BOND
   1    1    2 ar
   2    1    6 ar
   3    1   34 1
   4    2    3 ar
   5    2   35 1
   6    3    4 ar
   7    3    7 1
   8    4    5 ar
   9    5    6 ar
  10    5   36 1
  11    6   28 1
  12    7    8 2
  13    7    9 1
  14    8   11 1
  15    9   10 2
  16    9   37 1
  17   10   11 1
  18   10   12 1
  19   11   13 1
  20   12   29 ar
  21   12   33 ar
  22   13   14 1
  23   13   38 1
  24   13   39 1
  25   14   15 am
  26   14   16 2
  27   15   17 1
  28   15   18 1
  29   17   21 1
  30   17   40 1
  31   17   41 1
  32   18   19 1
  33   18   42 1
  34   18   43 1
  35   19   20 1
  36   19   44 1
  37   19   45 1
  38   20   21 1
  39   20   22 1
  40   21   46 1
  41   21   47 1
  42   22   23 ar
  43   22   24 ar
  44   23   27 ar
  45   24   25 ar
  46   25   26 ar
  47   25   48 1
  48   26   27 ar
  49   26   49 1
  50   27   50 1
  51   28   51 1
  52   28   52 1
  53   28   53 1
  54   29   30 ar
  55   29   54 1
  56   30   31 ar
  57   30   55 1
  58   31   32 ar
  59   31   56 1
  60   32   33 ar
  61   32   57 1
  62   33   58 1

#	End of record

