#	Name: ASD02408095
#	Creating user name:	WinNT
#	Creation time:	15. 06. 2019 20:21

#	Modifying user name:	WinNT
#	Modification time:	15. 06. 2019 20:21

#	Program:	/corina/corina34_cracker 3.40 0067  02.08.2006

@<TRIPOS>MOLECULE
ASD02408095
  44   46    0    0    0
SMALL
NO_CHARGES


@<TRIPOS>ATOM
   1 C1            -0.4211     2.2440     0.0180 C.ar    
   2 C2            -0.6776     0.9038    -0.2019 C.ar    
   3 C3             0.9980     2.7511     0.0081 C.3     
   4 C4             1.5282     2.7878     1.4183 C.2     
   5 N5             2.7884     3.2144     1.6293 N.am    
   6 N6             0.7492     2.4102     2.3953 N.2     
   7 C7             1.1662     2.4222     3.6678 C.2     
   8 C8             2.4718     2.8508     3.9590 C.2     
   9 C9             3.2954     3.2606     2.8792 C.2     
  10 N10            0.3263     2.0202     4.6772 N.pl3   
  11 C11           -0.5569     0.8596     4.4987 C.3     
  12 O12            4.4365     3.6417     3.0753 O.2     
  13 C13           -1.9794     0.4385    -0.1928 C.ar    
  14 C14           -3.0244     1.3136     0.0367 C.ar    
  15 C15           -2.7678     2.6540     0.2577 C.ar    
  16 C16           -1.4668     3.1203     0.2415 C.ar    
  17 C17           -1.1870     4.5814     0.4823 C.3     
  18 C18           -1.9946     1.2801     4.8196 C.3     
  19 C19           -2.0413     1.8959     6.2198 C.3     
  20 C20           -1.1532     3.1416     6.2610 C.3     
  21 C21            0.2981     2.7388     5.9585 C.3     
  22 O22           -3.3867     2.2598     6.5352 O.3     
  23 C23            2.9553     2.8783     5.3067 C.1     
  24 N24            3.3388     2.9001     6.3757 N.1     
  25 H25            0.1390     0.2201    -0.3813 H       
  26 H26            1.6169     2.0872    -0.5955 H       
  27 H27            1.0221     3.7552    -0.4153 H       
  28 H28            3.3356     3.4901     0.8773 H       
  29 H29           -0.4994     0.5120     3.4672 H       
  30 H30           -0.2507     0.0602     5.1735 H       
  31 H31           -2.1799    -0.6086    -0.3654 H       
  32 H32           -4.0415     0.9503     0.0431 H       
  33 H33           -3.5844     3.3378     0.4367 H       
  34 H34           -1.0421     4.7526     1.5490 H       
  35 H35           -0.2864     4.8728    -0.0581 H       
  36 H36           -2.0302     5.1757     0.1302 H       
  37 H37           -2.3308     2.0145     4.0877 H       
  38 H38           -2.6455     0.4065     4.7844 H       
  39 H39           -1.6816     1.1692     6.9483 H       
  40 H40           -1.4973     3.8585     5.5155 H       
  41 H41           -1.2052     3.5929     7.2518 H       
  42 H42            0.6716     2.0936     6.7537 H       
  43 H43            0.9183     3.6324     5.8885 H       
  44 H44           -3.4917     2.6575     7.4103 H       
@<TRIPOS>BOND
   1    1    2 ar
   2    1    3 1
   3    1   16 ar
   4    2   13 ar
   5    2   25 1
   6    3    4 1
   7    3   26 1
   8    3   27 1
   9    4    5 1
  10    4    6 2
  11    5    9 am
  12    5   28 1
  13    6    7 1
  14    7    8 2
  15    7   10 1
  16    8    9 1
  17    8   23 1
  18    9   12 2
  19   10   11 1
  20   10   21 1
  21   11   18 1
  22   11   29 1
  23   11   30 1
  24   13   14 ar
  25   13   31 1
  26   14   15 ar
  27   14   32 1
  28   15   16 ar
  29   15   33 1
  30   16   17 1
  31   17   34 1
  32   17   35 1
  33   17   36 1
  34   18   19 1
  35   18   37 1
  36   18   38 1
  37   19   20 1
  38   19   22 1
  39   19   39 1
  40   20   21 1
  41   20   40 1
  42   20   41 1
  43   21   42 1
  44   21   43 1
  45   22   44 1
  46   23   24 3

#	End of record

