#	Name: ASD01001095
#	Creating user name:	WinNT
#	Creation time:	15. 06. 2019 18:55

#	Modifying user name:	WinNT
#	Modification time:	15. 06. 2019 18:55

#	Program:	/corina/corina34_cracker 3.40 0067  02.08.2006

@<TRIPOS>MOLECULE
ASD01001095
  65   68    0    0    0
SMALL
NO_CHARGES


@<TRIPOS>ATOM
   1 C1             0.4092     0.7469    -1.2944 C.2     
   2 N2             0.0672     0.6627     0.0441 N.pl3   
   3 N3            -1.1057    -0.0147     0.4030 N.2     
   4 C4            -1.8595    -0.5537    -0.4977 C.2     
   5 N5            -1.5534    -0.4912    -1.8354 N.am    
   6 C6            -0.4424     0.1489    -2.2575 C.2     
   7 C7             1.5906     1.4543    -1.3813 C.2     
   8 C8             1.9558     1.7952    -0.0759 C.2     
   9 C9             1.0104     1.3000     0.7657 C.2     
  10 O10           -0.1719     0.2043    -3.4438 O.2     
  11 C11           -2.4442    -1.1203    -2.8136 C.3     
  12 C12           -3.5529    -0.1643    -3.1712 C.ar    
  13 C13           -3.3526     0.7917    -4.1494 C.ar    
  14 C14           -4.3696     1.6686    -4.4774 C.ar    
  15 C15           -5.5870     1.5894    -3.8274 C.ar    
  16 C16           -5.7876     0.6329    -2.8498 C.ar    
  17 C17           -4.7721    -0.2469    -2.5249 C.ar    
  18 C18           -3.1118    -1.2732    -0.0674 C.3     
  19 N19           -2.7526    -2.4222     0.7674 N.am    
  20 C20           -3.9989    -0.3181     0.7337 C.3     
  21 C21           -5.3364    -0.9970     1.0360 C.3     
  22 C22           -2.1358    -2.2101     2.0792 C.3     
  23 C23           -2.9895    -3.6743     0.3286 C.2     
  24 C24           -3.5177    -3.8922    -1.0350 C.ar    
  25 O25           -2.7689    -4.6244     1.0539 O.2     
  26 C26           -2.9284    -4.8414    -1.8715 C.ar    
  27 C27           -3.4261    -5.0398    -3.1428 C.ar    
  28 C28           -4.5069    -4.3002    -3.5891 C.ar    
  29 C29           -5.0954    -3.3573    -2.7650 C.ar    
  30 C30           -4.6113    -3.1535    -1.4893 C.ar    
  31 C31           -5.0453    -4.5223    -4.9790 C.3     
  32 C32           -3.2217    -2.1952     3.1569 C.3     
  33 C33           -2.5776    -1.9737     4.5269 C.3     
  34 N34           -3.6202    -1.9594     5.5617 N.3     
  35 Cl35           1.0163     1.4632     2.4940 Cl      
  36 Cl36           2.4573     1.8458    -2.8336 Cl      
  37 H37            2.8340     2.3535     0.2129 H       
  38 H38           -1.8786    -1.3725    -3.7106 H       
  39 H39           -2.8707    -2.0276    -2.3859 H       
  40 H40           -2.4014     0.8536    -4.6572 H       
  41 H41           -4.2129     2.4160    -5.2412 H       
  42 H42           -6.3813     2.2750    -4.0832 H       
  43 H43           -6.7387     0.5712    -2.3418 H       
  44 H44           -4.9288    -0.9942    -1.7611 H       
  45 H45           -3.6529    -1.6190    -0.9482 H       
  46 H46           -3.5028    -0.0601     1.6694 H       
  47 H47           -4.1742     0.5878     0.1536 H       
  48 H48           -5.8534    -1.2134     0.1011 H       
  49 H49           -5.1580    -1.9267     1.5762 H       
  50 H50           -5.9505    -0.3344     1.6459 H       
  51 H51           -1.4315    -3.0164     2.2842 H       
  52 H52           -1.6075    -1.2567     2.0825 H       
  53 H53           -2.0845    -5.4192    -1.5245 H       
  54 H54           -2.9709    -5.7738    -3.7912 H       
  55 H55           -5.9385    -2.7831    -3.1196 H       
  56 H56           -5.0717    -2.4175    -0.8470 H       
  57 H57           -5.8156    -5.2930    -4.9514 H       
  58 H58           -5.4740    -3.5934    -5.3553 H       
  59 H59           -4.2357    -4.8410    -5.6356 H       
  60 H60           -3.9260    -1.3889     2.9519 H       
  61 H61           -3.7500    -3.1486     3.1536 H       
  62 H62           -1.8733    -2.7800     4.7319 H       
  63 H63           -2.0493    -1.0203     4.5302 H       
  64 H64           -3.2199    -1.8145     6.4764 H       
  65 H65           -4.3211    -1.2623     5.3592 H       
@<TRIPOS>BOND
   1    1    2 1
   2    1    7 2
   3    1    6 1
   4    2    3 1
   5    2    9 1
   6    3    4 2
   7    4    5 1
   8    4   18 1
   9    5    6 am
  10    5   11 1
  11    6   10 2
  12    7    8 1
  13    7   36 1
  14    8    9 2
  15    8   37 1
  16    9   35 1
  17   11   12 1
  18   11   38 1
  19   11   39 1
  20   12   13 ar
  21   12   17 ar
  22   13   14 ar
  23   13   40 1
  24   14   15 ar
  25   14   41 1
  26   15   16 ar
  27   15   42 1
  28   16   17 ar
  29   16   43 1
  30   17   44 1
  31   18   19 1
  32   18   20 1
  33   18   45 1
  34   19   22 1
  35   19   23 am
  36   20   21 1
  37   20   46 1
  38   20   47 1
  39   21   48 1
  40   21   49 1
  41   21   50 1
  42   22   32 1
  43   22   51 1
  44   22   52 1
  45   23   24 1
  46   23   25 2
  47   24   26 ar
  48   24   30 ar
  49   26   27 ar
  50   26   53 1
  51   27   28 ar
  52   27   54 1
  53   28   29 ar
  54   28   31 1
  55   29   30 ar
  56   29   55 1
  57   30   56 1
  58   31   57 1
  59   31   58 1
  60   31   59 1
  61   32   33 1
  62   32   60 1
  63   32   61 1
  64   33   34 1
  65   33   62 1
  66   33   63 1
  67   34   64 1
  68   34   65 1

#	End of record

