#	Name: ASD01811299
#	Creating user name:	WinNT
#	Creation time:	15. 06. 2019 19:26

#	Modifying user name:	WinNT
#	Modification time:	15. 06. 2019 19:26

#	Program:	/corina/corina34_cracker 3.40 0067  02.08.2006

@<TRIPOS>MOLECULE
ASD01811299
  65   69    0    0    0
SMALL
NO_CHARGES


@<TRIPOS>ATOM
   1 C1             5.7374    12.4371    -2.7575 C.1     
   2 C2             4.6644    11.6236    -2.2700 C.ar    
   3 C3             4.9080    10.3086    -1.8684 C.ar    
   4 C4             3.8697     9.5305    -1.3999 C.ar    
   5 C5             2.5894    10.0501    -1.3278 C.ar    
   6 C6             2.3409    11.3521    -1.7246 C.ar    
   7 C7             3.3711    12.1435    -2.1888 C.ar    
   8 N8             6.5885    13.0825    -3.1442 N.1     
   9 N9            -1.2370     8.6992    -0.1217 N.am    
  10 C10           -0.2793     8.9586     0.9619 C.3     
  11 C11            0.8452     9.8488     0.4235 C.3     
  12 C12            1.4602     9.1937    -0.8154 C.3     
  13 C13            0.3928     9.0530    -1.9030 C.3     
  14 C14           -0.7368     8.1538    -1.3910 C.3     
  15 C15           -2.5501     8.9515     0.0473 C.2     
  16 C16           -3.0563     9.3810     1.3685 C.ar    
  17 C17           -4.0106    10.3946     1.4565 C.ar    
  18 C18           -4.4803    10.7919     2.6988 C.ar    
  19 C19           -4.0003    10.1806     3.8514 C.ar    
  20 C20           -3.0545     9.1767     3.7640 C.ar    
  21 C21           -2.5850     8.7697     2.5314 C.ar    
  22 O22           -3.3182     8.8260    -0.8863 O.2     
  23 C23           -4.5126    10.6143     5.2006 C.3     
  24 N24           -5.4367    11.8079     2.7925 N.pl3   
  25 C25           -5.9105    13.1741    -0.4104 C.ar    
  26 C26           -6.7537    14.0099     0.3406 C.ar    
  27 C27           -7.4630    15.0191    -0.2961 C.ar    
  28 C28           -7.3115    15.1663    -1.6635 C.ar    
  29 C29           -6.4605    14.3063    -2.3536 C.ar    
  30 N30           -5.7954    13.3522    -1.7263 N.ar    
  31 C31           -5.7966    12.5217     1.6691 C.2     
  32 N32           -5.3570    12.2893     0.4558 N.2     
  33 N33           -6.6595    13.5784     1.6548 N.pl3   
  34 N34           -6.3085    14.4541    -3.7289 N.pl3   
  35 C35           -6.9529    15.5730    -4.4211 C.3     
  36 C36           -5.5040    13.4908    -4.4846 C.3     
  37 H37            5.9067     9.9016    -1.9248 H       
  38 H38            4.0567     8.5133    -1.0889 H       
  39 H39            1.3391    11.7513    -1.6661 H       
  40 H40            3.1767    13.1612    -2.4936 H       
  41 H41           -0.7854     9.4659     1.7832 H       
  42 H42            0.1383     8.0154     1.3141 H       
  43 H43            0.4402    10.8247     0.1559 H       
  44 H44            1.6115     9.9700     1.1892 H       
  45 H45            1.8428     8.2075    -0.5525 H       
  46 H46           -0.0080    10.0364    -2.1488 H       
  47 H47            0.8371     8.6078    -2.7933 H       
  48 H48           -0.3566     7.1450    -1.2307 H       
  49 H49           -1.5449     8.1301    -2.1222 H       
  50 H50           -4.3819    10.8685     0.5599 H       
  51 H51           -2.6847     8.7059     4.6629 H       
  52 H52           -1.8497     7.9813     2.4671 H       
  53 H53           -5.3857    10.0184     5.4665 H       
  54 H54           -3.7330    10.4705     5.9487 H       
  55 H55           -4.7897    11.6678     5.1625 H       
  56 H56           -5.8469    12.0104     3.6479 H       
  57 H57           -8.1170    15.6728     0.2619 H       
  58 H58           -7.8485    15.9408    -2.1910 H       
  59 H59           -7.1238    13.9538     2.4192 H       
  60 H60           -6.2765    16.4276    -4.4383 H       
  61 H61           -7.1925    15.2786    -5.4428 H       
  62 H62           -7.8691    15.8452    -3.8971 H       
  63 H63           -5.1083    12.7358    -3.8053 H       
  64 H64           -6.1267    13.0102    -5.2392 H       
  65 H65           -4.6784    14.0098    -4.9717 H       
@<TRIPOS>BOND
   1    1    2 1
   2    1    8 3
   3    2    3 ar
   4    2    7 ar
   5    3    4 ar
   6    3   37 1
   7    4    5 ar
   8    4   38 1
   9    5    6 ar
  10    5   12 1
  11    6    7 ar
  12    6   39 1
  13    7   40 1
  14    9   10 1
  15    9   14 1
  16    9   15 am
  17   10   11 1
  18   10   41 1
  19   10   42 1
  20   11   12 1
  21   11   43 1
  22   11   44 1
  23   12   13 1
  24   12   45 1
  25   13   14 1
  26   13   46 1
  27   13   47 1
  28   14   48 1
  29   14   49 1
  30   15   16 1
  31   15   22 2
  32   16   17 ar
  33   16   21 ar
  34   17   18 ar
  35   17   50 1
  36   18   19 ar
  37   18   24 1
  38   19   20 ar
  39   19   23 1
  40   20   21 ar
  41   20   51 1
  42   21   52 1
  43   23   53 1
  44   23   54 1
  45   23   55 1
  46   24   31 1
  47   24   56 1
  48   25   26 ar
  49   25   30 ar
  50   25   32 1
  51   26   27 ar
  52   26   33 1
  53   27   28 ar
  54   27   57 1
  55   28   29 ar
  56   28   58 1
  57   29   30 ar
  58   29   34 1
  59   31   32 2
  60   31   33 1
  61   33   59 1
  62   34   35 1
  63   34   36 1
  64   35   60 1
  65   35   61 1
  66   35   62 1
  67   36   63 1
  68   36   64 1
  69   36   65 1

#	End of record

