#	Name: ASD03731315
#	Creating user name:	WinNT
#	Creation time:	15. 06. 2019 20:45

#	Modifying user name:	WinNT
#	Modification time:	15. 06. 2019 20:45

#	Program:	/corina/corina34_cracker 3.40 0067  02.08.2006

@<TRIPOS>MOLECULE
ASD03731315
  60   66    0    0    0
SMALL
NO_CHARGES


@<TRIPOS>ATOM
   1 O1             0.1103     1.4031     0.4691 O.3     
   2 C2             0.1568    -0.0331     0.5592 C.3     
   3 O3             1.4086    -0.3752    -0.0642 O.3     
   4 C4             2.2128     0.7150     0.1081 C.ar    
   5 C5             1.4139     1.8083     0.4349 C.ar    
   6 C6             3.5846     0.8649     0.0117 C.ar    
   7 C7             4.1759     2.1042     0.2377 C.ar    
   8 C8             3.3668     3.1908     0.5553 C.ar    
   9 C9             1.9993     3.0432     0.6583 C.ar    
  10 O10            5.4924     2.4596     0.2109 O.3     
  11 C11            4.2818     4.3761     0.7095 C.3     
  12 C12            5.5955     3.8908     0.0816 C.3     
  13 N13            3.6431     6.5561     0.9623 N.am    
  14 C14            3.7495     5.5987     0.0193 C.2     
  15 C15            4.4612     4.7756     2.1442 C.ar    
  16 C16            4.9103     4.1157     3.2663 C.ar    
  17 C17            4.9619     4.7731     4.4825 C.ar    
  18 C18            4.5613     6.0941     4.5682 C.ar    
  19 C19            4.1099     6.7592     3.4474 C.ar    
  20 C20            4.0549     6.1054     2.2188 C.ar    
  21 O21            3.4703     5.7043    -1.1563 O.2     
  22 C22            3.1535     7.9117     0.6999 C.3     
  23 C23            1.6593     7.9521     0.8919 C.ar    
  24 C24            1.1326     8.2508     2.1359 C.ar    
  25 C25           -0.2343     8.2899     2.3184 C.ar    
  26 C26           -1.0863     8.0272     1.2445 C.ar    
  27 C27           -0.5484     7.7265    -0.0078 C.ar    
  28 C28            0.8203     7.6959    -0.1780 C.ar    
  29 C29           -2.5522     8.0668     1.4329 C.2     
  30 O30           -3.2643     8.5304     0.5637 O.2     
  31 N31           -3.0988     7.5890     2.5684 N.am    
  32 C32           -4.5394     7.7299     2.8333 C.3     
  33 C33           -5.0961     6.3558     3.2228 C.3     
  34 O34           -4.3061     5.8110     4.2825 O.3     
  35 C35           -2.9399     5.5762     3.9328 C.3     
  36 C36           -2.2738     6.9054     3.5771 C.3     
  37 H37            0.1483    -0.3519     1.6015 H       
  38 H38           -0.6762    -0.4781     0.0149 H       
  39 H39            4.2007     0.0144    -0.2402 H       
  40 H40            1.3835     3.8930     0.9133 H       
  41 H41            6.4533     4.2689     0.6376 H       
  42 H42            5.6538     4.1815    -0.9673 H       
  43 H43            5.2222     3.0840     3.1970 H       
  44 H44            5.3137     4.2559     5.3629 H       
  45 H45            4.6019     6.6073     5.5176 H       
  46 H46            3.7981     7.7904     3.5226 H       
  47 H47            3.6276     8.6093     1.3903 H       
  48 H48            3.3959     8.1935    -0.3248 H       
  49 H49            1.7931     8.4535     2.9661 H       
  50 H50           -0.6441     8.5229     3.2900 H       
  51 H51           -1.2023     7.5223    -0.8428 H       
  52 H52            1.2377     7.4673    -1.1475 H       
  53 H53           -4.6953     8.4342     3.6504 H       
  54 H54           -5.0441     8.0897     1.9366 H       
  55 H55           -6.1284     6.4623     3.5561 H       
  56 H56           -5.0579     5.6898     2.3608 H       
  57 H57           -2.4210     5.1219     4.7769 H       
  58 H58           -2.8939     4.9074     3.0734 H       
  59 H59           -1.2788     6.7195     3.1727 H       
  60 H60           -2.1976     7.5253     4.4704 H       
@<TRIPOS>BOND
   1    1    2 1
   2    1    5 1
   3    2    3 1
   4    2   37 1
   5    2   38 1
   6    3    4 1
   7    4    5 ar
   8    4    6 ar
   9    5    9 ar
  10    6    7 ar
  11    6   39 1
  12    7    8 ar
  13    7   10 1
  14    8    9 ar
  15    8   11 1
  16    9   40 1
  17   10   12 1
  18   11   12 1
  19   11   14 1
  20   11   15 1
  21   12   41 1
  22   12   42 1
  23   13   14 am
  24   13   20 1
  25   13   22 1
  26   14   21 2
  27   15   16 ar
  28   15   20 ar
  29   16   17 ar
  30   16   43 1
  31   17   18 ar
  32   17   44 1
  33   18   19 ar
  34   18   45 1
  35   19   20 ar
  36   19   46 1
  37   22   23 1
  38   22   47 1
  39   22   48 1
  40   23   24 ar
  41   23   28 ar
  42   24   25 ar
  43   24   49 1
  44   25   26 ar
  45   25   50 1
  46   26   27 ar
  47   26   29 1
  48   27   28 ar
  49   27   51 1
  50   28   52 1
  51   29   30 2
  52   29   31 am
  53   31   32 1
  54   31   36 1
  55   32   33 1
  56   32   53 1
  57   32   54 1
  58   33   34 1
  59   33   55 1
  60   33   56 1
  61   34   35 1
  62   35   36 1
  63   35   57 1
  64   35   58 1
  65   36   59 1
  66   36   60 1

#	End of record

