#	Name: ASD09080139
#	Creating user name:	WinNT
#	Creation time:	15. 06. 2019 21:20

#	Modifying user name:	WinNT
#	Modification time:	15. 06. 2019 21:20

#	Program:	/corina/corina34_cracker 3.40 0067  02.08.2006

@<TRIPOS>MOLECULE
ASD09080139
  64   66    0    0    0
SMALL
NO_CHARGES


@<TRIPOS>ATOM
   1 C1            -0.5804     0.5627     1.3462 C.ar    
   2 C2            -0.5580    -0.7890     1.0491 C.ar    
   3 C3            -1.7075    -1.4259     0.6145 C.ar    
   4 C4            -2.8836    -0.7146     0.4758 C.ar    
   5 C5            -2.9114     0.6460     0.7740 C.ar    
   6 C6            -1.7530     1.2815     1.2160 C.ar    
   7 Cl7            0.8656     1.3545     1.8901 Cl      
   8 Cl8           -1.6711    -3.1213     0.2428 Cl      
   9 C9            -4.1720     1.4149     0.6261 C.ar    
  10 C10           -4.2001     2.7757     0.9243 C.ar    
  11 C11           -5.3752     3.4860     0.7845 C.ar    
  12 C12           -6.5235     2.8495     0.3493 C.ar    
  13 C13           -6.5014     1.4987     0.0523 C.ar    
  14 C14           -5.3304     0.7799     0.1831 C.ar    
  15 C15           -7.8035     3.6304     0.1987 C.3     
  16 C16           -7.8890     4.2011    -1.2183 C.3     
  17 N17           -7.9895     3.1024    -2.1821 N.am    
  18 C18           -9.1247     5.0958    -1.3341 C.3     
  19 C19           -9.2726     5.5767    -2.7790 C.3     
  20 O20          -10.4689     6.3483    -2.9042 O.3     
  21 O21           -7.9404     7.5142    -2.2209 O.3     
  22 C22           -8.0670     6.4403    -3.1551 C.3     
  23 C23           -9.0232     2.2401    -2.1156 C.2     
  24 C24           -9.1267     1.1099    -3.1070 C.3     
  25 O25           -9.8701     2.3738    -1.2578 O.2     
  26 O26          -10.2991     0.3407    -2.8318 O.3     
  27 C27          -10.4924    -0.7622    -3.7197 C.3     
  28 O28           -8.9787     6.2240    -0.4693 O.3     
  29 C29           -9.9007     7.7476     1.1361 C.ar    
  30 C30           -9.9757     9.0582     0.7031 C.ar    
  31 C31           -9.7166    10.0927     1.5827 C.ar    
  32 C32           -9.3831     9.8165     2.8954 C.ar    
  33 C33           -9.3090     8.5059     3.3287 C.ar    
  34 C34           -9.5666     7.4714     2.4488 C.ar    
  35 C35          -10.1891     6.6201     0.1788 C.3     
  36 H36            0.3596    -1.3485     1.1563 H       
  37 H37           -3.7799    -1.2124     0.1363 H       
  38 H38           -1.7697     2.3359     1.4488 H       
  39 H39           -3.3041     3.2736     1.2645 H       
  40 H40           -5.3982     4.5407     1.0157 H       
  41 H41           -7.4010     1.0065    -0.2864 H       
  42 H42           -5.3142    -0.2748    -0.0491 H       
  43 H43           -8.6538     2.9722     0.3771 H       
  44 H44           -7.8182     4.4468     0.9207 H       
  45 H45           -6.9947     4.7879    -1.4282 H       
  46 H46           -7.3122     2.9955    -2.8682 H       
  47 H47          -10.0110     4.5301    -1.0469 H       
  48 H48           -9.3245     4.7154    -3.4451 H       
  49 H49          -11.2694     5.8800    -2.6303 H       
  50 H50           -7.1949     8.1040    -2.3982 H       
  51 H51           -7.1631     5.8316    -3.1335 H       
  52 H52           -8.2085     6.8452    -4.1571 H       
  53 H53           -9.1875     1.5165    -4.1165 H       
  54 H54           -8.2463     0.4725    -3.0245 H       
  55 H55          -11.4026    -1.2950    -3.4446 H       
  56 H56          -10.5816    -0.3944    -4.7419 H       
  57 H57           -9.6404    -1.4384    -3.6500 H       
  58 H58          -10.2363     9.2740    -0.3226 H       
  59 H59           -9.7745    11.1166     1.2441 H       
  60 H60           -9.1800    10.6247     3.5825 H       
  61 H61           -9.0477     8.2902     4.3542 H       
  62 H62           -9.5080     6.4475     2.7871 H       
  63 H63          -10.9092     6.9532    -0.5686 H       
  64 H64          -10.6010     5.7735     0.7281 H       
@<TRIPOS>BOND
   1    1    2 ar
   2    1    7 1
   3    1    6 ar
   4    2    3 ar
   5    2   36 1
   6    3    4 ar
   7    3    8 1
   8    4    5 ar
   9    4   37 1
  10    5    6 ar
  11    5    9 1
  12    6   38 1
  13    9   10 ar
  14    9   14 ar
  15   10   11 ar
  16   10   39 1
  17   11   12 ar
  18   11   40 1
  19   12   13 ar
  20   12   15 1
  21   13   14 ar
  22   13   41 1
  23   14   42 1
  24   15   16 1
  25   15   43 1
  26   15   44 1
  27   16   17 1
  28   16   18 1
  29   16   45 1
  30   17   23 am
  31   17   46 1
  32   18   19 1
  33   18   28 1
  34   18   47 1
  35   19   20 1
  36   19   22 1
  37   19   48 1
  38   20   49 1
  39   21   22 1
  40   21   50 1
  41   22   51 1
  42   22   52 1
  43   23   24 1
  44   23   25 2
  45   24   26 1
  46   24   53 1
  47   24   54 1
  48   26   27 1
  49   27   55 1
  50   27   56 1
  51   27   57 1
  52   28   35 1
  53   29   30 ar
  54   29   34 ar
  55   29   35 1
  56   30   31 ar
  57   30   58 1
  58   31   32 ar
  59   31   59 1
  60   32   33 ar
  61   32   60 1
  62   33   34 ar
  63   33   61 1
  64   34   62 1
  65   35   63 1
  66   35   64 1

#	End of record

