#	Name: ASD00170134
#	Creating user name:	WinNT
#	Creation time:	15. 06. 2019 18:31

#	Modifying user name:	WinNT
#	Modification time:	15. 06. 2019 18:31

#	Program:	/corina/corina34_cracker 3.40 0067  02.08.2006

@<TRIPOS>MOLECULE
ASD00170134
  43   46    0    0    0
SMALL
NO_CHARGES


@<TRIPOS>ATOM
   1 C1            -0.0182     1.4915     0.0102 C.2     
   2 C2             0.0021    -0.0041     0.0020 C.ar    
   3 C3             1.3190    -0.4523    -0.0130 C.ar    
   4 C4             2.1957     0.7740    -0.0147 C.3     
   5 C5             1.2472     1.9528     0.0006 C.2     
   6 S6             1.2222     3.7156     0.0099 S.3     
   7 C7            -0.5366     3.6920     0.0263 C.2     
   8 N8            -0.9504     2.4702     0.0195 N.2     
   9 C9            -1.0453    -0.9281     0.0075 C.ar    
  10 C10           -0.7702    -2.2774    -0.0020 C.ar    
  11 C11            0.5516    -2.7231    -0.0166 C.ar    
  12 C12            1.5977    -1.7992    -0.0233 C.ar    
  13 N13           -1.3514     4.8123     0.0402 N.pl3   
  14 C14            0.8449    -4.1766    -0.0265 C.ar    
  15 C15           -0.1999    -5.0992    -0.0212 C.ar    
  16 C16            0.0756    -6.4557    -0.0305 C.ar    
  17 C17            1.3940    -6.8982    -0.0445 C.ar    
  18 C18            2.4377    -5.9790    -0.0497 C.ar    
  19 C19            2.1656    -4.6217    -0.0468 C.ar    
  20 O20            1.6632    -8.2320    -0.0526 O.3     
  21 C21            1.7798    -8.8625    -1.3297 C.3     
  22 O22           -0.9435    -7.3562    -0.0254 O.3     
  23 C23           -2.2727    -6.8317    -0.0104 C.3     
  24 O24            3.7263    -6.4137    -0.0634 O.3     
  25 C25            4.7480    -5.4147    -0.0681 C.3     
  26 H26            2.8272     0.7869     0.8736 H       
  27 H27            2.8101     0.7965    -0.9148 H       
  28 H28           -2.0692    -0.5850     0.0195 H       
  29 H29           -1.5797    -2.9923     0.0022 H       
  30 H30            2.6222    -2.1406    -0.0350 H       
  31 H31           -0.9573     5.6987     0.0413 H       
  32 H32           -2.3160     4.7104     0.0487 H       
  33 H33           -1.2238    -4.7559    -0.0097 H       
  34 H34            2.9763    -3.9081    -0.0512 H       
  35 H35            0.8444    -8.7491    -1.8776 H       
  36 H36            2.5891    -8.3970    -1.8922 H       
  37 H37            1.9948    -9.9223    -1.1933 H       
  38 H38           -2.4137    -6.2247     0.8839 H       
  39 H39           -2.4303    -6.2160    -0.8960 H       
  40 H40           -2.9879    -7.6542    -0.0078 H       
  41 H41            5.7262    -5.8955    -0.0791 H       
  42 H42            4.6406    -4.7892    -0.9542 H       
  43 H43            4.6567    -4.7974     0.8257 H       
@<TRIPOS>BOND
   1    1    2 1
   2    1    5 2
   3    1    8 1
   4    2    3 ar
   5    2    9 ar
   6    3    4 1
   7    3   12 ar
   8    4    5 1
   9    4   26 1
  10    4   27 1
  11    5    6 1
  12    6    7 1
  13    7    8 2
  14    7   13 1
  15    9   10 ar
  16    9   28 1
  17   10   11 ar
  18   10   29 1
  19   11   12 ar
  20   11   14 1
  21   12   30 1
  22   13   31 1
  23   13   32 1
  24   14   15 ar
  25   14   19 ar
  26   15   16 ar
  27   15   33 1
  28   16   17 ar
  29   16   22 1
  30   17   18 ar
  31   17   20 1
  32   18   19 ar
  33   18   24 1
  34   19   34 1
  35   20   21 1
  36   21   35 1
  37   21   36 1
  38   21   37 1
  39   22   23 1
  40   23   38 1
  41   23   39 1
  42   23   40 1
  43   24   25 1
  44   25   41 1
  45   25   42 1
  46   25   43 1

#	End of record

