#	Name: ASD01882685
#	Creating user name:	WinNT
#	Creation time:	15. 06. 2019 19:45

#	Modifying user name:	WinNT
#	Modification time:	15. 06. 2019 19:45

#	Program:	/corina/corina34_cracker 3.40 0067  02.08.2006

@<TRIPOS>MOLECULE
ASD01882685
  38   40    0    0    0
SMALL
NO_CHARGES


@<TRIPOS>ATOM
   1 C1            -0.0159     1.3220     0.0093 C.2     
   2 N2             0.0021    -0.0041     0.0020 N.2     
   3 C3             1.1523    -0.6857    -0.0126 C.2     
   4 C4             2.3835     0.0173    -0.0206 C.2     
   5 C5             2.3523     1.3664    -0.0131 C.2     
   6 N6             1.1484     2.0132     0.0019 N.pl3   
   7 O7            -1.0993     2.1290     0.0184 O.3     
   8 C8             0.8540     3.4562     0.0125 C.3     
   9 C9            -0.6831     3.5211     0.0242 C.3     
  10 O10            1.1423    -1.9071    -0.0187 O.2     
  11 C11           -1.1944     4.2379    -1.2270 C.3     
  12 O12           -2.6209     4.3119    -1.1842 O.3     
  13 C13           -3.2389     4.9237    -2.2295 C.ar    
  14 C14           -4.6218     5.0300    -2.2513 C.ar    
  15 C15           -5.2505     5.6537    -3.3162 C.ar    
  16 C16           -4.4931     6.1726    -4.3621 C.ar    
  17 C17           -3.1127     6.0645    -4.3365 C.ar    
  18 C18           -2.4862     5.4462    -3.2702 C.ar    
  19 O19           -5.1087     6.7855    -5.4096 O.3     
  20 C20           -4.2691     7.2946    -6.4478 C.3     
  21 O21           -6.6062     5.7585    -3.3398 O.3     
  22 C22           -7.3192     5.2029    -2.2331 C.3     
  23 H23            3.3237    -0.5140    -0.0321 H       
  24 H24            3.2727     1.9314    -0.0185 H       
  25 H25            1.2651     3.9237     0.9072 H       
  26 H26            1.2480     3.9334    -0.8848 H       
  27 H27           -1.0396     4.0220     0.9243 H       
  28 H28           -0.7793     5.2451    -1.2639 H       
  29 H29           -0.8857     3.6850    -2.1142 H       
  30 H30           -5.2077     4.6263    -1.4389 H       
  31 H31           -2.5248     6.4671    -5.1481 H       
  32 H32           -1.4093     5.3667    -3.2496 H       
  33 H33           -3.5881     8.0376    -6.0328 H       
  34 H34           -3.6939     6.4776    -6.8834 H       
  35 H35           -4.8850     7.7570    -7.2192 H       
  36 H36           -8.3890     5.3542    -2.3773 H       
  37 H37           -7.1092     4.1356    -2.1645 H       
  38 H38           -7.0034     5.6952    -1.3133 H       
@<TRIPOS>BOND
   1    1    2 2
   2    1    6 1
   3    1    7 1
   4    2    3 1
   5    3    4 1
   6    3   10 2
   7    4    5 2
   8    4   23 1
   9    5    6 1
  10    5   24 1
  11    6    8 1
  12    7    9 1
  13    8    9 1
  14    8   25 1
  15    8   26 1
  16    9   11 1
  17    9   27 1
  18   11   12 1
  19   11   28 1
  20   11   29 1
  21   12   13 1
  22   13   14 ar
  23   13   18 ar
  24   14   15 ar
  25   14   30 1
  26   15   16 ar
  27   15   21 1
  28   16   17 ar
  29   16   19 1
  30   17   18 ar
  31   17   31 1
  32   18   32 1
  33   19   20 1
  34   20   33 1
  35   20   34 1
  36   20   35 1
  37   21   22 1
  38   22   36 1
  39   22   37 1
  40   22   38 1

#	End of record

