#	Name: ASD03330694
#	Creating user name:	WinNT
#	Creation time:	15. 06. 2019 20:37

#	Modifying user name:	WinNT
#	Modification time:	15. 06. 2019 20:37

#	Program:	/corina/corina34_cracker 3.40 0067  02.08.2006

@<TRIPOS>MOLECULE
ASD03330694
  65   68    0    0    0
SMALL
NO_CHARGES


@<TRIPOS>ATOM
   1 C1             0.1837     2.1882    -1.0210 C.2     
   2 N2             0.2858     0.9694    -1.6014 N.pl3   
   3 C3             1.4445     2.5812    -0.6866 C.2     
   4 N4             2.2966     1.6101    -1.0811 N.2     
   5 C5             1.6094     0.6402    -1.6371 C.2     
   6 C6             2.1751    -0.6026    -2.2066 C.ar    
   7 C7             1.8129     3.8405    -0.0156 C.2     
   8 O8             0.9502     4.6409     0.2913 O.2     
   9 C9             3.4720     5.3570     0.9249 C.3     
  10 N10            3.1058     4.1051     0.2579 N.am    
  11 C11            3.3390     5.1857     2.4395 C.3     
  12 C12            4.2038     4.0096     2.8976 C.3     
  13 C13            3.8039     6.4640     3.1401 C.3     
  14 C14            4.8964     5.7106     0.5826 C.2     
  15 N15            5.3304     6.9779     0.7312 N.am    
  16 O16            5.6521     4.8549     0.1733 O.2     
  17 C17           -0.8372     0.1606    -2.0838 C.3     
  18 C18           -1.7729     1.0440    -2.9147 C.3     
  19 C19           -2.7956     1.7128    -2.0016 C.3     
  20 N20           -2.2133     2.0136    -0.6920 N.3     
  21 C21           -1.0936     2.9592    -0.8101 C.3     
  22 C22            3.4518    -0.5976    -2.7690 C.ar    
  23 C23            1.4364    -1.7858    -2.1782 C.ar    
  24 C24            1.9696    -2.9415    -2.7109 C.ar    
  25 C25            3.2341    -2.9288    -3.2720 C.ar    
  26 C26            3.9738    -1.7600    -3.2984 C.ar    
  27 C27            6.6823     7.3443     0.3016 C.3     
  28 C28            1.8763     4.9122     2.7953 C.3     
  29 C29           -3.1756     2.4908     0.1809 C.ar    
  30 N30           -2.8241     2.8151     1.4165 N.ar    
  31 N31           -4.4253     2.6175    -0.2406 N.ar    
  32 C32           -5.3688     3.0709     0.5680 C.ar    
  33 C33           -5.0366     3.4146     1.8690 C.ar    
  34 C34           -3.7189     3.2745     2.2755 C.ar    
  35 H35            2.8090     6.1547     0.5899 H       
  36 H36            3.7939     3.4667     0.0131 H       
  37 H37            5.2459     4.2045     2.6442 H       
  38 H38            4.1090     3.8876     3.9766 H       
  39 H39            3.8726     3.0990     2.3985 H       
  40 H40            3.2017     7.3055     2.7977 H       
  41 H41            3.6891     6.3498     4.2180 H       
  42 H42            4.8520     6.6472     2.9037 H       
  43 H43            4.7478     7.6474     1.1225 H       
  44 H44           -0.4603    -0.6537    -2.7025 H       
  45 H45           -1.3826    -0.2491    -1.2336 H       
  46 H46           -1.1894     1.8089    -3.4270 H       
  47 H47           -2.2913     0.4304    -3.6515 H       
  48 H48           -3.1357     2.6397    -2.4635 H       
  49 H49           -3.6478     1.0460    -1.8698 H       
  50 H50           -1.0167     3.5488     0.1034 H       
  51 H51           -1.2639     3.6213    -1.6591 H       
  52 H52            4.0303     0.3142    -2.7902 H       
  53 H53            0.4494    -1.7971    -1.7399 H       
  54 H54            1.3987    -3.8580    -2.6896 H       
  55 H55            3.6473    -3.8362    -3.6870 H       
  56 H56            4.9602    -1.7564    -3.7381 H       
  57 H57            6.8522     8.4025     0.4999 H       
  58 H58            7.4119     6.7498     0.8516 H       
  59 H59            6.7885     7.1530    -0.7662 H       
  60 H60            1.5451     4.0016     2.2962 H       
  61 H61            1.7815     4.7902     3.8743 H       
  62 H62            1.2602     5.7501     2.4689 H       
  63 H63           -6.3857     3.1724     0.2186 H       
  64 H64           -5.7873     3.7877     2.5499 H       
  65 H65           -3.4271     3.5335     3.2825 H       
@<TRIPOS>BOND
   1    1    2 1
   2    1    3 2
   3    1   21 1
   4    2   17 1
   5    2    5 1
   6    3    4 1
   7    3    7 1
   8    4    5 2
   9    5    6 1
  10    6   22 ar
  11    6   23 ar
  12    7    8 2
  13    7   10 am
  14    9   10 1
  15    9   11 1
  16    9   14 1
  17    9   35 1
  18   10   36 1
  19   11   12 1
  20   11   13 1
  21   11   28 1
  22   12   37 1
  23   12   38 1
  24   12   39 1
  25   13   40 1
  26   13   41 1
  27   13   42 1
  28   14   15 am
  29   14   16 2
  30   15   27 1
  31   15   43 1
  32   17   18 1
  33   17   44 1
  34   17   45 1
  35   18   19 1
  36   18   46 1
  37   18   47 1
  38   19   20 1
  39   19   48 1
  40   19   49 1
  41   20   21 1
  42   20   29 1
  43   21   50 1
  44   21   51 1
  45   22   26 ar
  46   22   52 1
  47   23   24 ar
  48   23   53 1
  49   24   25 ar
  50   24   54 1
  51   25   26 ar
  52   25   55 1
  53   26   56 1
  54   27   57 1
  55   27   58 1
  56   27   59 1
  57   28   60 1
  58   28   61 1
  59   28   62 1
  60   29   30 ar
  61   29   31 ar
  62   30   34 ar
  63   31   32 ar
  64   32   33 ar
  65   32   63 1
  66   33   34 ar
  67   33   64 1
  68   34   65 1

#	End of record

