#	Name: ASD00170055
#	Creating user name:	WinNT
#	Creation time:	15. 06. 2019 18:31

#	Modifying user name:	WinNT
#	Modification time:	15. 06. 2019 18:31

#	Program:	/corina/corina34_cracker 3.40 0067  02.08.2006

@<TRIPOS>MOLECULE
ASD00170055
  33   35    0    0    0
SMALL
NO_CHARGES


@<TRIPOS>ATOM
   1 C1            -0.0438     1.3533    -0.0031 C.2     
   2 C2            -0.0067     0.0171    -0.0092 C.2     
   3 C3            -1.3336    -0.5746     0.0096 C.2     
   4 C4            -2.3408     0.3561     0.0298 C.2     
   5 S5            -1.7009     1.9336     0.0187 S.3     
   6 N6            -3.6875     0.0552     0.0501 N.pl3   
   7 C7            -1.5713    -2.0179     0.0071 C.2     
   8 C8            -1.5662    -2.7702     1.2801 C.ar    
   9 O9            -1.7734    -2.5999    -1.0433 O.2     
  10 C10           -1.2238    -2.1294     2.4718 C.ar    
  11 C11           -1.2209    -2.8369     3.6560 C.ar    
  12 C12           -1.5560    -4.1795     3.6650 C.ar    
  13 C13           -1.8965    -4.8220     2.4883 C.ar    
  14 C14           -1.9096    -4.1245     1.2964 C.ar    
  15 C15            1.1851     2.2426    -0.0194 C.3     
  16 C16            2.4047     1.4044     0.3731 C.3     
  17 C17            2.4273     0.1284    -0.4738 C.3     
  18 C18            1.2833    -0.7873    -0.0322 C.3     
  19 Cl19          -2.3372    -4.9318    -0.1798 Cl      
  20 H20           -3.9796    -0.8669    -0.0227 H       
  21 H21           -4.3420     0.7658     0.1371 H       
  22 H22           -0.9613    -1.0818     2.4668 H       
  23 H23           -0.9561    -2.3418     4.5785 H       
  24 H24           -1.5513    -4.7284     4.5951 H       
  25 H25           -2.1570    -5.8700     2.5024 H       
  26 H26            1.3283     2.6497    -1.0203 H       
  27 H27            1.0565     3.0568     0.6937 H       
  28 H28            3.3142     1.9776     0.1932 H       
  29 H29            2.3413     1.1404     1.4288 H       
  30 H30            2.3022     0.3868    -1.5253 H       
  31 H31            3.3789    -0.3845    -0.3344 H       
  32 H32            1.4902    -1.1755     0.9651 H       
  33 H33            1.1853    -1.6145    -0.7353 H       
@<TRIPOS>BOND
   1    1    2 2
   2    1   15 1
   3    1    5 1
   4    2    3 1
   5    2   18 1
   6    3    4 2
   7    3    7 1
   8    4    5 1
   9    4    6 1
  10    6   20 1
  11    6   21 1
  12    7    8 1
  13    7    9 2
  14    8   10 ar
  15    8   14 ar
  16   10   11 ar
  17   10   22 1
  18   11   12 ar
  19   11   23 1
  20   12   13 ar
  21   12   24 1
  22   13   14 ar
  23   13   25 1
  24   14   19 1
  25   15   16 1
  26   15   26 1
  27   15   27 1
  28   16   17 1
  29   16   28 1
  30   16   29 1
  31   17   18 1
  32   17   30 1
  33   17   31 1
  34   18   32 1
  35   18   33 1

#	End of record

