#	Name: ASD01410997
#	Creating user name:	WinNT
#	Creation time:	15. 06. 2019 19:19

#	Modifying user name:	WinNT
#	Modification time:	15. 06. 2019 19:19

#	Program:	/corina/corina34_cracker 3.40 0067  02.08.2006

@<TRIPOS>MOLECULE
ASD01410997
  64   67    0    0    0
SMALL
NO_CHARGES


@<TRIPOS>ATOM
   1 C1            -1.2675     3.1349    -0.2446 C.ar    
   2 C2            -0.6089     1.9312    -0.4833 C.ar    
   3 C3            -1.3230     0.7507    -0.5730 C.ar    
   4 C4            -2.7024     0.7587    -0.4255 C.ar    
   5 C5            -3.3711     1.9694    -0.1842 C.ar    
   6 C6            -2.6399     3.1574    -0.0899 C.ar    
   7 O7            -0.5565     4.2911    -0.1579 O.3     
   8 C8            -0.2016     4.9086    -1.3126 C.ar    
   9 N9            -3.4218    -0.4308    -0.5168 N.am    
  10 C10           -3.6164    -1.1867     0.5819 C.2     
  11 C11           -3.2078    -0.6815     1.9071 C.ar    
  12 O12           -4.1285    -2.2849     0.4813 O.2     
  13 C13           -2.4977     0.5171     2.0129 C.ar    
  14 C14           -3.1488    -0.9170     4.3010 C.ar    
  15 C15           -2.4409     0.2679     4.3955 C.ar    
  16 C16           -2.1194     0.9839     3.2529 C.ar    
  17 Cl17          -1.9596     0.8649     5.9529 Cl      
  18 N18           -0.6427     4.4400    -2.4686 N.ar    
  19 C19           -3.9668    -0.8599    -1.8072 C.3     
  20 C20           -4.7518     0.2920    -2.4378 C.3     
  21 C21            0.6166     6.0302    -1.2695 C.ar    
  22 C22            0.9713     6.6509    -2.4547 C.ar    
  23 C23            0.4925     6.1250    -3.6465 C.ar    
  24 C24           -0.3219     5.0101    -3.6142 C.ar    
  25 F25            0.7342     1.9171    -0.6283 F       
  26 C26           -2.8202    -1.2644    -2.7360 C.3     
  27 O27           -2.1651    -2.4198    -2.2088 O.3     
  28 C28           -1.0726    -2.8826    -3.0052 C.3     
  29 C29           -3.5349    -1.3975     3.0635 C.ar    
  30 C30            0.8523     6.7674    -4.9614 C.3     
  31 N31            2.0840     6.1655    -5.4781 N.pl3   
  32 N32            2.1271     5.1365    -6.2481 N.2     
  33 F33           -4.2261    -2.5545     2.9713 F       
  34 C34            3.3836     4.8652    -6.5195 C.2     
  35 C35            4.1374     5.8272    -5.8432 C.2     
  36 N36            3.2691     6.5976    -5.2278 N.2     
  37 C37           -4.8350     1.9872    -0.0263 C.2     
  38 O38           -5.4544     0.9424     0.0159 O.2     
  39 O39           -5.4880     3.1622     0.0715 O.3     
  40 C40            1.1112     6.5643     0.0500 C.3     
  41 F41            1.9111     7.6902    -0.1730 F       
  42 F42            0.0187     6.9193     0.8484 F       
  43 F43            1.8630     5.5794     0.6995 F       
  44 H44           -0.8061    -0.1792    -0.7587 H       
  45 H45           -3.1481     4.0921     0.0955 H       
  46 H46           -2.2453     1.0765     1.1242 H       
  47 H47           -3.3958    -1.4703     5.1951 H       
  48 H48           -1.5705     1.9104     3.3348 H       
  49 H49           -4.6299    -1.7118    -1.6563 H       
  50 H50           -4.1127     1.1723    -2.5069 H       
  51 H51           -5.0818     0.0034    -3.4357 H       
  52 H52           -5.6201     0.5210    -1.8200 H       
  53 H53            1.6059     7.5248    -2.4521 H       
  54 H54           -0.6968     4.5967    -4.5389 H       
  55 H55           -3.2170    -1.4914    -3.7255 H       
  56 H56           -2.1062    -0.4442    -2.8103 H       
  57 H57           -0.3224    -2.0960    -3.0851 H       
  58 H58           -0.6290    -3.7617    -2.5377 H       
  59 H59           -1.4331    -3.1433    -4.0003 H       
  60 H60            0.0439     6.6106    -5.6756 H       
  61 H61            1.0045     7.8366    -4.8139 H       
  62 H62            3.7572     4.0628    -7.1382 H       
  63 H63            5.2132     5.9213    -5.8321 H       
  64 H64           -6.4487     3.1233     0.1739 H       
@<TRIPOS>BOND
   1    1    2 ar
   2    1    7 1
   3    1    6 ar
   4    2    3 ar
   5    2   25 1
   6    3    4 ar
   7    3   44 1
   8    4    5 ar
   9    4    9 1
  10    5    6 ar
  11    5   37 1
  12    6   45 1
  13    7    8 1
  14    8   21 ar
  15    8   18 ar
  16    9   10 am
  17    9   19 1
  18   10   11 1
  19   10   12 2
  20   11   13 ar
  21   11   29 ar
  22   13   16 ar
  23   13   46 1
  24   14   15 ar
  25   14   29 ar
  26   14   47 1
  27   15   16 ar
  28   15   17 1
  29   16   48 1
  30   18   24 ar
  31   19   20 1
  32   19   26 1
  33   19   49 1
  34   20   50 1
  35   20   51 1
  36   20   52 1
  37   21   22 ar
  38   21   40 1
  39   22   23 ar
  40   22   53 1
  41   23   24 ar
  42   23   30 1
  43   24   54 1
  44   26   27 1
  45   26   55 1
  46   26   56 1
  47   27   28 1
  48   28   57 1
  49   28   58 1
  50   28   59 1
  51   29   33 1
  52   30   31 1
  53   30   60 1
  54   30   61 1
  55   31   32 1
  56   31   36 1
  57   32   34 2
  58   34   35 1
  59   34   62 1
  60   35   36 2
  61   35   63 1
  62   37   38 2
  63   37   39 1
  64   39   64 1
  65   40   41 1
  66   40   42 1
  67   40   43 1

#	End of record

