#	Name: ASD01120149
#	Creating user name:	WinNT
#	Creation time:	15. 06. 2019 18:59

#	Modifying user name:	WinNT
#	Modification time:	15. 06. 2019 18:59

#	Program:	/corina/corina34_cracker 3.40 0067  02.08.2006

@<TRIPOS>MOLECULE
ASD01120149
  50   52    0    0    0
SMALL
NO_CHARGES


@<TRIPOS>ATOM
   1 C1            -0.0584     1.4175     0.6798 C.ar    
   2 C2            -0.0451     0.0187     0.7695 C.ar    
   3 C3            -1.2119    -0.7046     0.6562 C.ar    
   4 C4            -2.4228    -0.0327     0.4499 C.ar    
   5 C5            -2.4283     1.3815     0.3608 C.ar    
   6 C6            -1.2293     2.0934     0.4844 C.ar    
   7 N7            -3.5868    -0.6907     0.3325 N.ar    
   8 C8            -4.7056    -0.0337     0.1392 C.ar    
   9 N9            -4.7592     1.2857     0.0496 N.ar    
  10 C10           -3.6674     2.0325     0.1516 C.ar    
  11 C11           -6.0860     3.4970     0.6117 C.ar    
  12 C12           -4.9821     4.0392    -0.0337 C.ar    
  13 C13           -5.1166     5.2102    -0.7687 C.ar    
  14 C14           -6.3475     5.8318    -0.8554 C.ar    
  15 C15           -7.4452     5.2888    -0.2105 C.ar    
  16 C16           -7.3137     4.1237     0.5219 C.ar    
  17 O17            1.1065     2.1097     0.7943 O.3     
  18 C18            1.0280     3.5330     0.6943 C.3     
  19 N19           -3.7382     3.4079     0.0565 N.pl3   
  20 Br20          -6.5325     7.4260    -1.8555 Br      
  21 C21            2.4272     4.1329     0.8462 C.3     
  22 O22            3.2438     3.7213    -0.2518 O.3     
  23 C23            4.5785     4.2298    -0.2062 C.3     
  24 O24            1.1312    -0.6307     0.9697 O.3     
  25 C25            1.0794    -2.0564     1.0522 C.3     
  26 C26            2.4894    -2.6058     1.2778 C.3     
  27 O27            2.9721    -2.1708     2.5505 O.3     
  28 C28            4.2886    -2.6316     2.8613 C.3     
  29 H29           -1.1927    -1.7822     0.7258 H       
  30 H30           -1.2288     3.1713     0.4172 H       
  31 H31           -5.6241    -0.5945     0.0488 H       
  32 H32           -5.9854     2.5843     1.1802 H       
  33 H33           -4.2600     5.6345    -1.2714 H       
  34 H34           -8.4063     5.7765    -0.2793 H       
  35 H35           -8.1721     3.7027     1.0243 H       
  36 H36            0.6189     3.8068    -0.2783 H       
  37 H37            0.3803     3.9174     1.4822 H       
  38 H38           -2.9247     3.9363     0.0524 H       
  39 H39            2.3568     5.2206     0.8590 H       
  40 H40            2.8716     3.7867     1.7794 H       
  41 H41            5.0675     3.8855     0.7051 H       
  42 H42            5.1334     3.8722    -1.0736 H       
  43 H43            4.5527     5.3194    -0.2153 H       
  44 H44            0.4380    -2.3491     1.8835 H       
  45 H45            0.6767    -2.4597     0.1231 H       
  46 H46            2.4633    -3.6952     1.2521 H       
  47 H47            3.1518    -2.2396     0.4935 H       
  48 H48            4.2998    -3.7215     2.8685 H       
  49 H49            4.9883    -2.2659     2.1099 H       
  50 H50            4.5817    -2.2587     3.8427 H       
@<TRIPOS>BOND
   1    1    2 ar
   2    1   17 1
   3    1    6 ar
   4    2    3 ar
   5    2   24 1
   6    3    4 ar
   7    3   29 1
   8    4    5 ar
   9    4    7 ar
  10    5    6 ar
  11    5   10 ar
  12    6   30 1
  13    7    8 ar
  14    8    9 ar
  15    8   31 1
  16    9   10 ar
  17   10   19 1
  18   11   12 ar
  19   11   16 ar
  20   11   32 1
  21   12   13 ar
  22   12   19 1
  23   13   14 ar
  24   13   33 1
  25   14   15 ar
  26   14   20 1
  27   15   16 ar
  28   15   34 1
  29   16   35 1
  30   17   18 1
  31   18   21 1
  32   18   36 1
  33   18   37 1
  34   19   38 1
  35   21   22 1
  36   21   39 1
  37   21   40 1
  38   22   23 1
  39   23   41 1
  40   23   42 1
  41   23   43 1
  42   24   25 1
  43   25   26 1
  44   25   44 1
  45   25   45 1
  46   26   27 1
  47   26   46 1
  48   26   47 1
  49   27   28 1
  50   28   48 1
  51   28   49 1
  52   28   50 1

#	End of record

