#	Name: ASD01580013
#	Creating user name:	WinNT
#	Creation time:	15. 06. 2019 19:22

#	Modifying user name:	WinNT
#	Modification time:	15. 06. 2019 19:22

#	Program:	/corina/corina34_cracker 3.40 0067  02.08.2006

@<TRIPOS>MOLECULE
ASD01580013
  20   20    0    0    0
SMALL
NO_CHARGES


@<TRIPOS>ATOM
   1 C1            -0.0184     1.5028     0.0103 C.2     
   2 N2             1.3145    -0.4785     0.4607 N.3     
   3 C3             0.0021    -0.0041     0.0020 C.3     
   4 C4            -0.2550    -0.5098    -1.4189 C.3     
   5 C5            -0.3567    -2.0133    -1.4063 C.2     
   6 C6            -1.3864    -2.7408    -1.8796 C.2     
   7 N7            -1.0705    -4.0564    -1.6715 N.pl3   
   8 C8             0.1421    -4.0869    -1.0779 C.2     
   9 N9             0.5650    -2.8616    -0.9270 N.2     
  10 O10            1.0197     2.1211     0.0037 O.2     
  11 O11           -1.1898     2.1580     0.0194 O.3     
  12 H12            2.0512    -0.1417    -0.1409 H       
  13 H13            1.4805    -0.2121     1.4196 H       
  14 H14           -0.7738    -0.3816     0.6680 H       
  15 H15           -1.1871    -0.0857    -1.7924 H       
  16 H16            0.5674    -0.2067    -2.0668 H       
  17 H17           -2.2883    -2.3596    -2.3353 H       
  18 H18           -1.6158    -4.8234    -1.9065 H       
  19 H19            0.6753    -4.9780    -0.7810 H       
  20 H20           -1.1523     3.1243     0.0245 H       
@<TRIPOS>BOND
   1    1    3 1
   2    1   10 2
   3    1   11 1
   4    2    3 1
   5    2   12 1
   6    2   13 1
   7    3    4 1
   8    3   14 1
   9    4    5 1
  10    4   15 1
  11    4   16 1
  12    5    6 2
  13    5    9 1
  14    6    7 1
  15    6   17 1
  16    7    8 1
  17    7   18 1
  18    8    9 2
  19    8   19 1
  20   11   20 1

#	End of record

