#	Name: ASD01880455
#	Creating user name:	WinNT
#	Creation time:	15. 06. 2019 19:40

#	Modifying user name:	WinNT
#	Modification time:	15. 06. 2019 19:40

#	Program:	/corina/corina34_cracker 3.40 0067  02.08.2006

@<TRIPOS>MOLECULE
ASD01880455
  43   47    0    0    0
SMALL
NO_CHARGES


@<TRIPOS>ATOM
   1 C1            -0.0169     1.3928     0.0097 C.ar    
   2 C2             0.0021    -0.0041     0.0020 C.ar    
   3 C3             1.2136    -0.6908    -0.0132 C.ar    
   4 C4             2.4023     0.0192    -0.0208 C.ar    
   5 C5             2.3728     1.4246    -0.0130 C.ar    
   6 C6             1.1521     2.1000     0.0023 C.ar    
   7 N7             3.6286    -0.6377    -0.0355 N.pl3   
   8 C8             4.7929     0.0687    -0.0425 C.2     
   9 N9             4.8014     1.4562    -0.0349 N.am    
  10 C10            3.6500     2.1584    -0.0210 C.2     
  11 N11            3.9495    -2.0027    -0.0456 N.2     
  12 C12            5.2608    -2.1201    -0.0583 C.2     
  13 C13            5.8180    -0.8301    -0.0567 C.2     
  14 C14            6.0810     2.1695    -0.0431 C.3     
  15 O15            3.6660     3.3750    -0.0143 O.2     
  16 C16           -1.2739    -0.7592     0.0106 C.ar    
  17 C17            6.0197    -3.3953    -0.0709 C.ar    
  18 C18            7.4096    -3.3926     0.0213 C.ar    
  19 N19            8.0846    -4.5239     0.0096 N.ar    
  20 C20            7.4820    -5.6930    -0.0881 C.ar    
  21 C21            6.1048    -5.7794    -0.1836 C.ar    
  22 C22            5.3511    -4.6186    -0.1698 C.ar    
  23 C23           -2.4898    -0.0774     0.0264 C.ar    
  24 C24           -3.6744    -0.7841     0.0339 C.ar    
  25 C25           -3.6571    -2.1697     0.0258 C.ar    
  26 C26           -2.4509    -2.8517     0.0106 C.ar    
  27 C27           -1.2614    -2.1533    -0.0028 C.ar    
  28 F28           -4.8197    -2.8578     0.0332 F       
  29 H29           -0.9612     1.9169     0.0170 H       
  30 H30            1.2259    -1.7707    -0.0188 H       
  31 H31            1.1313     3.1798     0.0087 H       
  32 H32            6.8715    -0.5926    -0.0654 H       
  33 H33            6.3886     2.3521    -1.0727 H       
  34 H34            5.9699     3.1209     0.4771 H       
  35 H35            6.8365     1.5662     0.4603 H       
  36 H36            7.9387    -2.4546     0.1027 H       
  37 H37            8.0730    -6.5969    -0.0940 H       
  38 H38            5.6226    -6.7425    -0.2635 H       
  39 H39            4.2742    -4.6567    -0.2429 H       
  40 H40           -2.5042     1.0025     0.0330 H       
  41 H41           -4.6168    -0.2567     0.0464 H       
  42 H42           -2.4422    -3.9316     0.0047 H       
  43 H43           -0.3218    -2.6856    -0.0150 H       
@<TRIPOS>BOND
   1    1    2 ar
   2    1    6 ar
   3    1   29 1
   4    2    3 ar
   5    2   16 1
   6    3    4 ar
   7    3   30 1
   8    4    5 ar
   9    4    7 1
  10    5    6 ar
  11    5   10 1
  12    6   31 1
  13    7    8 1
  14    7   11 1
  15    8    9 1
  16    8   13 2
  17    9   10 am
  18    9   14 1
  19   10   15 2
  20   11   12 2
  21   12   13 1
  22   12   17 1
  23   13   32 1
  24   14   33 1
  25   14   34 1
  26   14   35 1
  27   16   23 ar
  28   16   27 ar
  29   17   18 ar
  30   17   22 ar
  31   18   19 ar
  32   18   36 1
  33   19   20 ar
  34   20   21 ar
  35   20   37 1
  36   21   22 ar
  37   21   38 1
  38   22   39 1
  39   23   24 ar
  40   23   40 1
  41   24   25 ar
  42   24   41 1
  43   25   26 ar
  44   25   28 1
  45   26   27 ar
  46   26   42 1
  47   27   43 1

#	End of record

