#	Name: ASD08178401
#	Creating user name:	WinNT
#	Creation time:	15. 06. 2019 21:18

#	Modifying user name:	WinNT
#	Modification time:	15. 06. 2019 21:18

#	Program:	/corina/corina34_cracker 3.40 0067  02.08.2006

@<TRIPOS>MOLECULE
ASD08178401
  79   82    0    0    0
SMALL
NO_CHARGES


@<TRIPOS>ATOM
   1 N1            -0.0168     1.3902     0.0097 N.am    
   2 C2            -0.2173     0.0103     0.0231 C.ar    
   3 C3             0.8683    -0.8557    -0.0926 C.ar    
   4 N4            -1.4399    -0.4832     0.1513 N.ar    
   5 N5            -1.6667    -1.7463     0.1686 N.ar    
   6 C6            -0.7002    -2.6368     0.0602 C.ar    
   7 C7             0.6159    -2.2190    -0.0733 C.ar    
   8 C8            -1.0247    -4.1082     0.0874 C.3     
   9 C9            -1.8115    -4.4335     1.3586 C.3     
  10 C10           -2.1410    -5.9273     1.3862 C.3     
  11 C11           -2.9278    -6.2527     2.6574 C.3     
  12 C12           -3.2523    -7.7241     2.6845 C.2     
  13 N13           -2.5213    -8.6581     3.2049 N.2     
  14 N14           -2.9690    -9.8359     3.1257 N.2     
  15 C15           -4.1130   -10.0077     2.5350 C.2     
  16 S16           -4.6995    -8.4828     2.0200 S.3     
  17 N17           -4.7575   -11.2270     2.3553 N.am    
  18 C18           -4.1929   -12.3617     2.8139 C.2     
  19 C19           -4.8913   -13.6828     2.6192 C.3     
  20 O20           -3.1229   -12.3195     3.3832 O.2     
  21 C21           -4.0568   -14.7853     3.2184 C.ar    
  22 C22           -4.2366   -15.1477     4.5400 C.ar    
  23 C23           -3.4710   -16.1591     5.0898 C.ar    
  24 C24           -2.5260   -16.8081     4.3177 C.ar    
  25 C25           -2.3467   -16.4462     2.9955 C.ar    
  26 C26           -3.1151   -15.4380     2.4446 C.ar    
  27 C27           -3.6664   -16.5536     6.5311 C.3     
  28 N28           -4.6795   -17.6084     6.6156 N.am    
  29 C29           -5.0207   -18.1206     7.8146 C.2     
  30 O30           -4.4880   -17.7074     8.8256 O.2     
  31 O31           -5.9518   -19.0900     7.8923 O.3     
  32 C32           -6.2693   -19.5945     9.2163 C.3     
  33 C33           -7.3397   -20.6820     9.1045 C.3     
  34 C34           -1.0750     2.2250     0.0167 C.2     
  35 C35           -0.8601     3.7130     0.1198 C.3     
  36 O36           -2.2000     1.7786    -0.0599 O.2     
  37 C37           -2.1935     4.4152     0.1067 C.ar    
  38 C38           -2.8560     4.6616     1.2947 C.ar    
  39 C39           -4.0799     5.3053     1.2859 C.ar    
  40 C40           -4.6435     5.7037     0.0895 C.ar    
  41 C41           -3.9803     5.4579    -1.1043 C.ar    
  42 C42           -2.7501     4.8171    -1.0924 C.ar    
  43 O43           -4.5329     5.8485    -2.2828 O.3     
  44 F44           -5.6804     7.6731    -1.4547 F       
  45 F45           -6.2190     6.8378    -3.5118 F       
  46 C46           -5.7994     6.5072    -2.2188 C.3     
  47 F47           -6.7385     5.6557    -1.6271 F       
  48 H48            0.8842     1.7494    -0.0006 H       
  49 H49            1.8745    -0.4770    -0.1944 H       
  50 H50            1.4199    -2.9345    -0.1636 H       
  51 H51           -1.6240    -4.3643    -0.7864 H       
  52 H52           -0.0997    -4.6845     0.0751 H       
  53 H53           -1.2123    -4.1774     2.2323 H       
  54 H54           -2.7366    -3.8571     1.3708 H       
  55 H55           -2.7402    -6.1835     0.5124 H       
  56 H56           -1.2159    -6.5037     1.3739 H       
  57 H57           -2.3286    -5.9966     3.5311 H       
  58 H58           -3.8529    -5.6763     2.6696 H       
  59 H59           -5.6133   -11.2607     1.9000 H       
  60 H60           -5.8640   -13.6554     3.1104 H       
  61 H61           -5.0274   -13.8683     1.5537 H       
  62 H62           -4.9750   -14.6406     5.1433 H       
  63 H63           -1.9273   -17.5977     4.7474 H       
  64 H64           -1.6080   -16.9530     2.3922 H       
  65 H65           -2.9751   -15.1553     1.4117 H       
  66 H66           -2.7244   -16.9211     6.9381 H       
  67 H67           -3.9959   -15.6866     7.1036 H       
  68 H68           -5.1048   -17.9382     5.8085 H       
  69 H69           -5.3714   -20.0137     9.6703 H       
  70 H70           -6.6430   -18.7792     9.8358 H       
  71 H71           -8.2376   -20.2627     8.6505 H       
  72 H72           -6.9661   -21.4973     8.4850 H       
  73 H73           -7.5781   -21.0607    10.0984 H       
  74 H74           -0.3385     3.9413     1.0493 H       
  75 H75           -0.2620     4.0532    -0.7255 H       
  76 H76           -2.4172     4.3506     2.2312 H       
  77 H77           -4.5957     5.4964     2.2153 H       
  78 H78           -5.5997     6.2057     0.0831 H       
  79 H79           -2.2319     4.6246    -2.0202 H       
@<TRIPOS>BOND
   1    1    2 1
   2    1   34 am
   3    1   48 1
   4    2    3 ar
   5    2    4 ar
   6    3    7 ar
   7    3   49 1
   8    4    5 ar
   9    5    6 ar
  10    6    7 ar
  11    6    8 1
  12    7   50 1
  13    8    9 1
  14    8   51 1
  15    8   52 1
  16    9   10 1
  17    9   53 1
  18    9   54 1
  19   10   11 1
  20   10   55 1
  21   10   56 1
  22   11   12 1
  23   11   57 1
  24   11   58 1
  25   12   13 2
  26   12   16 1
  27   13   14 1
  28   14   15 2
  29   15   16 1
  30   15   17 1
  31   17   18 am
  32   17   59 1
  33   18   19 1
  34   18   20 2
  35   19   21 1
  36   19   60 1
  37   19   61 1
  38   21   22 ar
  39   21   26 ar
  40   22   23 ar
  41   22   62 1
  42   23   24 ar
  43   23   27 1
  44   24   25 ar
  45   24   63 1
  46   25   26 ar
  47   25   64 1
  48   26   65 1
  49   27   28 1
  50   27   66 1
  51   27   67 1
  52   28   29 am
  53   28   68 1
  54   29   30 2
  55   29   31 1
  56   31   32 1
  57   32   33 1
  58   32   69 1
  59   32   70 1
  60   33   71 1
  61   33   72 1
  62   33   73 1
  63   34   35 1
  64   34   36 2
  65   35   37 1
  66   35   74 1
  67   35   75 1
  68   37   38 ar
  69   37   42 ar
  70   38   39 ar
  71   38   76 1
  72   39   40 ar
  73   39   77 1
  74   40   41 ar
  75   40   78 1
  76   41   42 ar
  77   41   43 1
  78   42   79 1
  79   43   46 1
  80   44   46 1
  81   45   46 1
  82   46   47 1

#	End of record

