#	Name: ASD01917599
#	Creating user name:	WinNT
#	Creation time:	15. 06. 2019 20:09

#	Modifying user name:	WinNT
#	Modification time:	15. 06. 2019 20:09

#	Program:	/corina/corina34_cracker 3.40 0067  02.08.2006

@<TRIPOS>MOLECULE
ASD01917599
  33   33    0    0    0
SMALL
NO_CHARGES


@<TRIPOS>ATOM
   1 C1            -0.0157     1.5049     0.0002 C.2     
   2 C2             0.0057    -0.0020     0.0013 C.3     
   3 O3             1.0218     2.1238    -0.0221 O.2     
   4 O4            -1.1874     2.1594     0.0185 O.3     
   5 C5            -1.1320     3.6104     0.0163 C.3     
   6 C6            -2.5538     4.1751     0.0387 C.3     
   7 C7            -3.3140     3.6918    -1.1980 C.3     
   8 C8            -3.2738     3.6941     1.3001 C.3     
   9 C9            -2.4963     5.6810     0.0364 C.2     
  10 N10           -3.6368     6.3989     0.0541 N.am    
  11 S11           -1.0823     6.4270     0.0129 S.2     
  12 C12           -3.5847     7.7867     0.1665 C.ar    
  13 C13           -4.7561     8.5300     0.0708 C.ar    
  14 C14           -4.6904     9.9072     0.1842 C.ar    
  15 C15           -3.4498    10.4966     0.3905 C.ar    
  16 C16           -2.3270     9.6965     0.4756 C.ar    
  17 N17           -2.4214     8.3849     0.3689 N.ar    
  18 I18           -3.2830    12.5772     0.5699 I       
  19 H19            0.0324    -0.3643     1.0290 H       
  20 H20           -0.8896    -0.3784    -0.4935 H       
  21 H21            0.8898    -0.3532    -0.5308 H       
  22 H22           -0.5904     3.9547     0.8973 H       
  23 H23           -0.6191     3.9530    -0.8824 H       
  24 H24           -3.3556     2.6026    -1.1963 H       
  25 H25           -4.3270     4.0941    -1.1821 H       
  26 H26           -2.8011     4.0344    -2.0967 H       
  27 H27           -2.7322     4.0384     2.1812 H       
  28 H28           -4.2867     4.0964     1.3161 H       
  29 H29           -3.3153     2.6049     1.3018 H       
  30 H30           -4.4939     5.9494    -0.0115 H       
  31 H31           -5.7044     8.0388    -0.0903 H       
  32 H32           -5.5835    10.5104     0.1137 H       
  33 H33           -1.3601    10.1501     0.6359 H       
@<TRIPOS>BOND
   1    1    2 1
   2    1    3 2
   3    1    4 1
   4    2   19 1
   5    2   20 1
   6    2   21 1
   7    4    5 1
   8    5    6 1
   9    5   22 1
  10    5   23 1
  11    6    7 1
  12    6    8 1
  13    6    9 1
  14    7   24 1
  15    7   25 1
  16    7   26 1
  17    8   27 1
  18    8   28 1
  19    8   29 1
  20    9   10 am
  21    9   11 2
  22   10   12 1
  23   10   30 1
  24   12   13 ar
  25   12   17 ar
  26   13   14 ar
  27   13   31 1
  28   14   15 ar
  29   14   32 1
  30   15   16 ar
  31   15   18 1
  32   16   17 ar
  33   16   33 1

#	End of record

