#	Name: ASD01940424
#	Creating user name:	WinNT
#	Creation time:	15. 06. 2019 20:12

#	Modifying user name:	WinNT
#	Modification time:	15. 06. 2019 20:12

#	Program:	/corina/corina34_cracker 3.40 0067  02.08.2006

@<TRIPOS>MOLECULE
ASD01940424
  54   57    0    0    0
SMALL
NO_CHARGES


@<TRIPOS>ATOM
   1 N1             1.4338     2.7748    -2.0271 N.am    
   2 N2             1.7406     1.7869    -2.9685 N.2     
   3 C3             2.4904     0.8708    -2.4283 C.2     
   4 C4             2.7186     1.2406    -1.0339 C.ar    
   5 C5             3.4321     0.6549     0.0229 C.ar    
   6 C6             3.4509     1.2790     1.2635 C.ar    
   7 C7             2.7675     2.4754     1.4563 C.ar    
   8 C8             2.0638     3.0570     0.4235 C.ar    
   9 C9             2.0314     2.4505    -0.8269 C.ar    
  10 C10            0.6812     3.8690    -2.2569 C.2     
  11 O11            0.4783     4.6654    -1.3625 O.2     
  12 O12            0.1543     4.0793    -3.4775 O.3     
  13 N13            4.1178    -0.5467    -0.1712 N.pl3   
  14 C14            3.5187    -1.7589     0.1850 C.ar    
  15 C15            4.1659    -2.9615    -0.0818 C.ar    
  16 C16            3.5702    -4.1577     0.2719 C.ar    
  17 C17            2.3322    -4.1589     0.8903 C.ar    
  18 C18            1.6871    -2.9649     1.1560 C.ar    
  19 C19            2.2795    -1.7652     0.8107 C.ar    
  20 I20            1.4328    -5.9740     1.4248 I       
  21 F21            5.3743    -2.9601    -0.6859 F       
  22 N22            4.1613     0.7007     2.3261 N.am    
  23 S23            3.5787     0.8169     3.8719 S.o2    
  24 O24            4.5048     0.0734     4.6522 O.2     
  25 O25            3.4028     2.2121     4.0761 O.2     
  26 C26            1.9733    -0.0256     3.8152 C.3     
  27 C27            1.1126     0.0084     5.0797 C.3     
  28 C28            0.7163     0.8455     3.8618 C.3     
  29 C29           -0.6455     5.2785    -3.6527 C.3     
  30 C30            0.2116     6.5109    -3.3569 C.3     
  31 C31           -1.1553     5.3456    -5.0937 C.3     
  32 C32           -1.8357     5.2425    -2.6918 C.3     
  33 H33            2.8757    -0.0082    -2.9236 H       
  34 H34            2.7882     2.9529     2.4248 H       
  35 H35            1.5368     3.9856     0.5860 H       
  36 H36            5.0095    -0.5400    -0.5530 H       
  37 H37            4.0711    -5.0919     0.0652 H       
  38 H38            0.7208    -2.9698     1.6384 H       
  39 H39            1.7768    -0.8333     1.0235 H       
  40 H40            4.9936     0.2327     2.1554 H       
  41 H41            1.9377    -0.9289     3.2063 H       
  42 H42            0.5104    -0.8725     5.3024 H       
  43 H43            1.5110     0.5370     5.9457 H       
  44 H44            0.8541     1.9248     3.9266 H       
  45 H45           -0.1466     0.5154     3.2834 H       
  46 H46            1.0594     6.5365    -4.0414 H       
  47 H47           -0.3889     7.4110    -3.4884 H       
  48 H48            0.5747     6.4631    -2.3303 H       
  49 H49           -1.7659     4.4676    -5.3044 H       
  50 H50           -1.7557     6.2457    -5.2251 H       
  51 H51           -0.3074     5.3712    -5.7782 H       
  52 H52           -1.4725     5.1946    -1.6652 H       
  53 H53           -2.4361     6.1426    -2.8233 H       
  54 H54           -2.4463     4.3645    -2.9025 H       
@<TRIPOS>BOND
   1    1    2 1
   2    1    9 1
   3    1   10 am
   4    2    3 2
   5    3    4 1
   6    3   33 1
   7    4    5 ar
   8    4    9 ar
   9    5    6 ar
  10    5   13 1
  11    6    7 ar
  12    6   22 1
  13    7    8 ar
  14    7   34 1
  15    8    9 ar
  16    8   35 1
  17   10   11 2
  18   10   12 1
  19   12   29 1
  20   13   14 1
  21   13   36 1
  22   14   15 ar
  23   14   19 ar
  24   15   16 ar
  25   15   21 1
  26   16   17 ar
  27   16   37 1
  28   17   18 ar
  29   17   20 1
  30   18   19 ar
  31   18   38 1
  32   19   39 1
  33   22   23 am
  34   22   40 1
  35   23   24 2
  36   23   25 2
  37   23   26 1
  38   26   27 1
  39   26   28 1
  40   26   41 1
  41   27   28 1
  42   27   42 1
  43   27   43 1
  44   28   44 1
  45   28   45 1
  46   29   30 1
  47   29   32 1
  48   29   31 1
  49   30   46 1
  50   30   47 1
  51   30   48 1
  52   31   49 1
  53   31   50 1
  54   31   51 1
  55   32   52 1
  56   32   53 1
  57   32   54 1

#	End of record

