#	Name: ASD01884965
#	Creating user name:	WinNT
#	Creation time:	15. 06. 2019 19:49

#	Modifying user name:	WinNT
#	Modification time:	15. 06. 2019 19:49

#	Program:	/corina/corina34_cracker 3.40 0067  02.08.2006

@<TRIPOS>MOLECULE
ASD01884965
  42   45    0    0    0
SMALL
NO_CHARGES


@<TRIPOS>ATOM
   1 C1            -0.0166     1.3753     0.0096 C.ar    
   2 C2             0.0021    -0.0041     0.0020 C.ar    
   3 C3            -1.1980    -0.7166     0.0101 C.ar    
   4 C4            -2.4130    -0.0319     0.0259 C.ar    
   5 C5            -2.4268     1.3471     0.0334 C.ar    
   6 C6            -1.2316     2.0555     0.0307 C.ar    
   7 C7            -1.1814    -2.1977     0.0015 C.2     
   8 C8            -1.6671    -2.9081     1.0846 C.2     
   9 C9            -0.6733    -2.9008    -1.1181 C.2     
  10 C10           -0.6590    -4.2466    -1.1239 C.2     
  11 N11           -1.1312    -4.9565    -0.0571 N.pl3   
  12 C12           -1.6376    -4.3135     1.0464 C.2     
  13 Cl13          -2.3029    -2.0774     2.4701 Cl      
  14 C14           -1.2377    -6.2880     0.2074 C.2     
  15 N15           -1.7693    -6.4124     1.3961 N.2     
  16 N16           -2.0105    -5.2538     1.9010 N.2     
  17 C17           -0.8194    -7.4133    -0.7035 C.3     
  18 F18            1.1442     2.0664     0.0022 F       
  19 C19            0.2453    -8.3825    -0.1859 C.3     
  20 C20           -1.2121    -8.8349    -0.2963 C.3     
  21 N21           -1.2489     3.4522     0.0387 N.pl3   
  22 C22           -2.5265     4.1689     0.0501 C.3     
  23 C23           -3.0247     4.3006     1.4907 C.3     
  24 C24           -2.3351     5.5621    -0.5527 C.3     
  25 H25            0.9442    -0.5320    -0.0105 H       
  26 H26           -3.3427    -0.5814     0.0318 H       
  27 H27           -3.3678     1.8769     0.0452 H       
  28 H28           -0.2963    -2.3550    -1.9704 H       
  29 H29           -0.2695    -4.7719    -1.9834 H       
  30 H30           -0.8114    -7.1784    -1.7679 H       
  31 H31            0.9536    -8.7855    -0.9098 H       
  32 H32            0.6432    -8.2062     0.8134 H       
  33 H33           -1.7730    -8.9562     0.6304 H       
  34 H34           -1.4626    -9.5355    -1.0929 H       
  35 H35           -0.4149     3.9475     0.0369 H       
  36 H36           -3.2586     3.6159    -0.5384 H       
  37 H37           -2.2926     4.8536     2.0792 H       
  38 H38           -3.9753     4.8339     1.4991 H       
  39 H39           -3.1610     3.3081     1.9201 H       
  40 H40           -1.9802     5.4683    -1.5790 H       
  41 H41           -3.2857     6.0954    -0.5443 H       
  42 H42           -1.6030     6.1151     0.0358 H       
@<TRIPOS>BOND
   1    1    2 ar
   2    1   18 1
   3    1    6 ar
   4    2    3 ar
   5    2   25 1
   6    3    4 ar
   7    3    7 1
   8    4    5 ar
   9    4   26 1
  10    5    6 ar
  11    5   27 1
  12    6   21 1
  13    7    8 2
  14    7    9 1
  15    8   13 1
  16    8   12 1
  17    9   10 2
  18    9   28 1
  19   10   11 1
  20   10   29 1
  21   11   12 1
  22   11   14 1
  23   12   16 2
  24   14   15 2
  25   14   17 1
  26   15   16 1
  27   17   19 1
  28   17   20 1
  29   17   30 1
  30   19   20 1
  31   19   31 1
  32   19   32 1
  33   20   33 1
  34   20   34 1
  35   21   22 1
  36   21   35 1
  37   22   23 1
  38   22   24 1
  39   22   36 1
  40   23   37 1
  41   23   38 1
  42   23   39 1
  43   24   40 1
  44   24   41 1
  45   24   42 1

#	End of record

