#	Name: ASD00170652
#	Creating user name:	WinNT
#	Creation time:	15. 06. 2019 18:32

#	Modifying user name:	WinNT
#	Modification time:	15. 06. 2019 18:32

#	Program:	/corina/corina34_cracker 3.40 0067  02.08.2006

@<TRIPOS>MOLECULE
ASD00170652
  46   49    0    0    0
SMALL
NO_CHARGES


@<TRIPOS>ATOM
   1 C1            -0.0146     1.2125    -0.0046 C.2     
   2 O2             0.6111     1.0320    -1.0335 O.2     
   3 C3             0.5184     0.7149     1.2820 C.ar    
   4 C4             1.6826    -0.0551     1.3073 C.ar    
   5 C5             2.1751    -0.5160     2.5100 C.ar    
   6 C6             1.5171    -0.2163     3.6915 C.ar    
   7 C7             0.3613     0.5468     3.6726 C.ar    
   8 C8            -0.1376     1.0181     2.4765 C.ar    
   9 Cl9            2.1431    -0.8000     5.2018 Cl      
  10 C10           -3.5973     2.1241    -0.1833 C.2     
  11 C11           -2.5754     1.2623    -0.1757 C.2     
  12 C12           -1.2905     1.9270    -0.0403 C.2     
  13 C13           -1.3941     3.2915     0.0511 C.2     
  14 S14           -3.0243     3.7763    -0.0248 S.3     
  15 C15           -2.7457    -0.2438    -0.2958 C.3     
  16 C16           -4.1443    -0.5395    -0.8421 C.3     
  17 C17           -5.1799     0.2253    -0.0123 C.3     
  18 C18           -5.0537     1.7216    -0.3178 C.3     
  19 C19           -6.5856    -0.2541    -0.3801 C.3     
  20 C20           -7.5945     0.4091     0.5217 C.ar    
  21 C21           -8.1609     1.6158     0.1555 C.ar    
  22 C22           -9.0864     2.2242     0.9828 C.ar    
  23 C23           -9.4457     1.6257     2.1759 C.ar    
  24 C24           -8.8799     0.4186     2.5416 C.ar    
  25 C25           -7.9577    -0.1919     1.7123 C.ar    
  26 N26           -0.3243     4.1529     0.1861 N.pl3   
  27 H27            2.1964    -0.2896     0.3867 H       
  28 H28            3.0755    -1.1120     2.5309 H       
  29 H29           -0.1479     0.7766     4.5968 H       
  30 H30           -1.0363     1.6167     2.4634 H       
  31 H31           -1.9951    -0.6432    -0.9778 H       
  32 H32           -2.6321    -0.7038     0.6859 H       
  33 H33           -4.2038    -0.2207    -1.8827 H       
  34 H34           -4.3425    -1.6093    -0.7760 H       
  35 H35           -4.9992     0.0497     1.0481 H       
  36 H36           -5.6561     2.2866     0.3936 H       
  37 H37           -5.3967     1.9244    -1.3323 H       
  38 H38           -6.7985     0.0062    -1.4170 H       
  39 H39           -6.6443    -1.3356    -0.2576 H       
  40 H40           -7.8802     2.0833    -0.7767 H       
  41 H41           -9.5284     3.1672     0.6970 H       
  42 H42          -10.1682     2.1014     2.8226 H       
  43 H43           -9.1604    -0.0488     3.4740 H       
  44 H44           -7.5184    -1.1368     1.9963 H       
  45 H45            0.5718     3.7993     0.2996 H       
  46 H46           -0.4685     5.1120     0.1675 H       
@<TRIPOS>BOND
   1    1    2 2
   2    1    3 1
   3    1   12 1
   4    3    4 ar
   5    3    8 ar
   6    4    5 ar
   7    4   27 1
   8    5    6 ar
   9    5   28 1
  10    6    7 ar
  11    6    9 1
  12    7    8 ar
  13    7   29 1
  14    8   30 1
  15   10   11 2
  16   10   14 1
  17   10   18 1
  18   11   12 1
  19   11   15 1
  20   12   13 2
  21   13   14 1
  22   13   26 1
  23   15   16 1
  24   15   31 1
  25   15   32 1
  26   16   17 1
  27   16   33 1
  28   16   34 1
  29   17   18 1
  30   17   19 1
  31   17   35 1
  32   18   36 1
  33   18   37 1
  34   19   20 1
  35   19   38 1
  36   19   39 1
  37   20   21 ar
  38   20   25 ar
  39   21   22 ar
  40   21   40 1
  41   22   23 ar
  42   22   41 1
  43   23   24 ar
  44   23   42 1
  45   24   25 ar
  46   24   43 1
  47   25   44 1
  48   26   45 1
  49   26   46 1

#	End of record

