#	Name: ASD04370070
#	Creating user name:	WinNT
#	Creation time:	15. 06. 2019 20:49

#	Modifying user name:	WinNT
#	Modification time:	15. 06. 2019 20:49

#	Program:	/corina/corina34_cracker 3.40 0067  02.08.2006

@<TRIPOS>MOLECULE
ASD04370070
  67   68    0    0    0
SMALL
NO_CHARGES


@<TRIPOS>ATOM
   1 C1             0.9909     1.9973    -0.3670 C.2     
   2 C2             0.3700     0.6311    -0.2294 C.3     
   3 C3             1.4554    -0.3897     0.1184 C.3     
   4 C4             0.8482    -1.7939     0.1356 C.3     
   5 O5             2.1795     2.1400    -0.2037 O.2     
   6 O6             0.2242     3.0548    -0.6764 O.3     
   7 N7             2.0106    -0.0815     1.4386 N.am    
   8 C8             3.3459    -0.0647     1.6210 C.2     
   9 C9             3.9154     0.1371     3.0016 C.3     
  10 C10            5.4436     0.1146     2.9312 C.3     
  11 C11            6.0218     0.3194     4.3328 C.3     
  12 C12            7.5500     0.2970     4.2624 C.3     
  13 C13            8.1281     0.5018     5.6641 C.3     
  14 C14            9.6564     0.4793     5.5937 C.3     
  15 O15            4.0891    -0.2119     0.6740 O.2     
  16 C16           10.2258     0.6810     6.9743 C.ar    
  17 C17           10.4778    -0.4104     7.7843 C.ar    
  18 C18           11.0001    -0.2254     9.0507 C.ar    
  19 C19           11.2710     1.0511     9.5069 C.ar    
  20 C20           11.0199     2.1425     8.6966 C.ar    
  21 C21           10.5016     1.9572     7.4285 C.ar    
  22 N22            1.8619    -2.7603     0.5790 N.3     
  23 C23            1.2415    -4.0358     0.9614 C.3     
  24 C24            2.8852    -2.9618    -0.4555 C.3     
  25 C25            0.8898     4.3400    -0.7926 C.3     
  26 C26           -0.1226     5.4001    -1.1425 C.ar    
  27 C27           -0.7763     6.0897    -0.1385 C.ar    
  28 C28           -1.7049     7.0621    -0.4595 C.ar    
  29 C29           -1.9795     7.3452    -1.7844 C.ar    
  30 C30           -1.3251     6.6563    -2.7883 C.ar    
  31 C31           -0.3933     5.6869    -2.4674 C.ar    
  32 H32           -0.3781     0.6501     0.5631 H       
  33 H33           -0.1041     0.3510    -1.1700 H       
  34 H34            2.2482    -0.3457    -0.6284 H       
  35 H35            0.0014    -1.8152     0.8215 H       
  36 H36            0.5104    -2.0560    -0.8670 H       
  37 H37            1.4172     0.1105     2.1815 H       
  38 H38            3.5838     1.0982     3.3945 H       
  39 H39            3.5701    -0.6622     3.6574 H       
  40 H40            5.7751    -0.8465     2.5382 H       
  41 H41            5.7889     0.9139     2.2753 H       
  42 H42            5.6902     1.2806     4.7257 H       
  43 H43            5.6765    -0.4798     4.9886 H       
  44 H44            7.8815    -0.6642     3.8695 H       
  45 H45            7.8953     1.0962     3.6066 H       
  46 H46            7.7966     1.4629     6.0570 H       
  47 H47            7.7829    -0.2975     6.3199 H       
  48 H48            9.9879    -0.4818     5.2008 H       
  49 H49           10.0016     1.2786     4.9379 H       
  50 H50           10.2662    -1.4077     7.4278 H       
  51 H51           11.1963    -1.0781     9.6838 H       
  52 H52           11.6784     1.1957    10.4966 H       
  53 H53           11.2311     3.1398     9.0532 H       
  54 H54           10.3088     2.8096     6.7940 H       
  55 H55            0.7116    -4.4532     0.1052 H       
  56 H56            2.0143    -4.7329     1.2855 H       
  57 H57            0.5384    -3.8677     1.7772 H       
  58 H58            3.3890    -2.0165    -0.6572 H       
  59 H59            3.6134    -3.6948    -0.1083 H       
  60 H60            2.4124    -3.3236    -1.3686 H       
  61 H61            1.3648     4.5903     0.1560 H       
  62 H62            1.6465     4.2879    -1.5754 H       
  63 H63           -0.5618     5.8686     0.8966 H       
  64 H64           -2.2162     7.6004     0.3249 H       
  65 H65           -2.7055     8.1044    -2.0351 H       
  66 H66           -1.5398     6.8772    -3.8234 H       
  67 H67            0.1207     5.1512    -3.2518 H       
@<TRIPOS>BOND
   1    1    2 1
   2    1    5 2
   3    1    6 1
   4    2    3 1
   5    2   32 1
   6    2   33 1
   7    3    4 1
   8    3    7 1
   9    3   34 1
  10    4   22 1
  11    4   35 1
  12    4   36 1
  13    6   25 1
  14    7    8 am
  15    7   37 1
  16    8    9 1
  17    8   15 2
  18    9   10 1
  19    9   38 1
  20    9   39 1
  21   10   11 1
  22   10   40 1
  23   10   41 1
  24   11   12 1
  25   11   42 1
  26   11   43 1
  27   12   13 1
  28   12   44 1
  29   12   45 1
  30   13   14 1
  31   13   46 1
  32   13   47 1
  33   14   16 1
  34   14   48 1
  35   14   49 1
  36   16   17 ar
  37   16   21 ar
  38   17   18 ar
  39   17   50 1
  40   18   19 ar
  41   18   51 1
  42   19   20 ar
  43   19   52 1
  44   20   21 ar
  45   20   53 1
  46   21   54 1
  47   22   23 1
  48   22   24 1
  49   23   55 1
  50   23   56 1
  51   23   57 1
  52   24   58 1
  53   24   59 1
  54   24   60 1
  55   25   26 1
  56   25   61 1
  57   25   62 1
  58   26   27 ar
  59   26   31 ar
  60   27   28 ar
  61   27   63 1
  62   28   29 ar
  63   28   64 1
  64   29   30 ar
  65   29   65 1
  66   30   31 ar
  67   30   66 1
  68   31   67 1

#	End of record

