#	Name: ASD01883547
#	Creating user name:	WinNT
#	Creation time:	15. 06. 2019 19:46

#	Modifying user name:	WinNT
#	Modification time:	15. 06. 2019 19:46

#	Program:	/corina/corina34_cracker 3.40 0067  02.08.2006

@<TRIPOS>MOLECULE
ASD01883547
  54   57    0    0    0
SMALL
NO_CHARGES


@<TRIPOS>ATOM
   1 C1             1.1543     0.5115     0.5698 C.2     
   2 C2             0.1124     0.1509    -0.3112 C.2     
   3 C3            -0.6674    -0.9129    -0.0272 C.2     
   4 N4            -0.4645    -1.6467     1.0995 N.am    
   5 C5             0.5178    -1.3353     1.9651 C.2     
   6 C6             1.3575    -0.2453     1.7128 C.2     
   7 O7             0.6801    -2.0094     2.9707 O.2     
   8 N8             1.9635     1.5998     0.2938 N.pl3   
   9 C9             1.4013     2.9562     0.2397 C.3     
  10 C10            1.7824     3.5948    -1.0996 C.3     
  11 C11            3.3017     3.5368    -1.2738 C.3     
  12 C12            3.7600     2.0767    -1.2872 C.3     
  13 C13            3.4023     1.4215     0.0555 C.3     
  14 C14           -1.3305    -2.7955     1.3762 C.3     
  15 C15            3.6833     4.1948    -2.5748 C.ar    
  16 C16            3.5550     3.5013    -3.7638 C.ar    
  17 C17            3.9051     4.1048    -4.9571 C.ar    
  18 C18            4.3831     5.4019    -4.9616 C.ar    
  19 C19            4.5106     6.0956    -3.7728 C.ar    
  20 C20            4.1564     5.4936    -2.5798 C.ar    
  21 C21           -0.7245    -4.0534     0.7505 C.3     
  22 Cl22           2.6271     0.1631     2.8241 Cl      
  23 C23           -1.4219    -5.3866     1.0278 C.3     
  24 C24           -1.5209    -4.7451    -0.3577 C.3     
  25 O25            3.9317     4.2234    -0.1904 O.3     
  26 C26            5.3566     4.1148    -0.1835 C.3     
  27 C27            5.9251     4.9372     0.9746 C.3     
  28 F28            5.5059     4.3841     2.1893 F       
  29 H29           -0.0604     0.7248    -1.2096 H       
  30 H30           -1.4638    -1.1853    -0.7039 H       
  31 H31            0.3158     2.9054     0.3245 H       
  32 H32            1.8063     3.5525     1.0573 H       
  33 H33            1.3019     3.0500    -1.9123 H       
  34 H34            1.4540     4.6341    -1.1136 H       
  35 H35            3.2610     1.5462    -2.0981 H       
  36 H36            4.8392     2.0355    -1.4347 H       
  37 H37            3.9720     1.8938     0.8558 H       
  38 H38            3.6360     0.3576     0.0166 H       
  39 H39           -1.4192    -2.9324     2.4539 H       
  40 H40           -2.3178    -2.6173     0.9501 H       
  41 H41            3.1815     2.4880    -3.7603 H       
  42 H42            3.8054     3.5628    -5.8860 H       
  43 H43            4.6573     5.8731    -5.8939 H       
  44 H44            4.8844     7.1088    -3.7762 H       
  45 H45            4.2561     6.0356    -1.6510 H       
  46 H46            0.3625    -4.0612     0.6695 H       
  47 H47           -0.7938    -6.2717     1.1289 H       
  48 H48           -2.3124    -5.3677     1.6560 H       
  49 H49           -2.4766    -4.3041    -0.6409 H       
  50 H50           -0.9580    -5.2082    -1.1681 H       
  51 H51            5.6407     3.0697    -0.0608 H       
  52 H52            5.7542     4.4912    -1.1260 H       
  53 H53            7.0140     4.9270     0.9273 H       
  54 H54            5.5678     5.9644     0.9006 H       
@<TRIPOS>BOND
   1    1    2 1
   2    1    8 1
   3    1    6 2
   4    2    3 2
   5    2   29 1
   6    3    4 1
   7    3   30 1
   8    4    5 am
   9    4   14 1
  10    5    6 1
  11    5    7 2
  12    6   22 1
  13    8    9 1
  14    8   13 1
  15    9   10 1
  16    9   31 1
  17    9   32 1
  18   10   11 1
  19   10   33 1
  20   10   34 1
  21   11   15 1
  22   11   12 1
  23   11   25 1
  24   12   13 1
  25   12   35 1
  26   12   36 1
  27   13   37 1
  28   13   38 1
  29   14   21 1
  30   14   39 1
  31   14   40 1
  32   15   16 ar
  33   15   20 ar
  34   16   17 ar
  35   16   41 1
  36   17   18 ar
  37   17   42 1
  38   18   19 ar
  39   18   43 1
  40   19   20 ar
  41   19   44 1
  42   20   45 1
  43   21   23 1
  44   21   24 1
  45   21   46 1
  46   23   24 1
  47   23   47 1
  48   23   48 1
  49   24   49 1
  50   24   50 1
  51   25   26 1
  52   26   27 1
  53   26   51 1
  54   26   52 1
  55   27   28 1
  56   27   53 1
  57   27   54 1

#	End of record

