#	Name: ASD01150754
#	Creating user name:	WinNT
#	Creation time:	15. 06. 2019 19:04

#	Modifying user name:	WinNT
#	Modification time:	15. 06. 2019 19:04

#	Program:	/corina/corina34_cracker 3.40 0067  02.08.2006

@<TRIPOS>MOLECULE
ASD01150754
  48   51    0    0    0
SMALL
NO_CHARGES


@<TRIPOS>ATOM
   1 C1            -0.0034     1.4275     0.0439 C.2     
   2 C2            -0.5036     1.0184    -1.3175 C.3     
   3 N3             3.5644     2.3089     0.4770 N.ar    
   4 C4             2.4628     1.6142     0.3657 C.ar    
   5 C5             1.2157     2.2341     0.1654 C.ar    
   6 C6             1.1525     3.6368     0.0827 C.ar    
   7 C7             2.3650     4.3592     0.2073 C.ar    
   8 C8             2.3842     5.7579     0.1362 C.ar    
   9 C9             3.5836     6.4279     0.2624 C.ar    
  10 C10            4.7740     5.7200     0.4594 C.ar    
  11 C11            4.7769     4.3612     0.5313 C.ar    
  12 C12            3.5734     3.6472     0.4074 C.ar    
  13 C13           -0.1339     4.3329    -0.1274 C.ar    
  14 C14           -1.1322     4.2713     0.8473 C.ar    
  15 C15           -2.3304     4.9238     0.6449 C.ar    
  16 C16           -2.5447     5.6380    -0.5209 C.ar    
  17 C17           -1.5600     5.7029    -1.4911 C.ar    
  18 C18           -0.3547     5.0603    -1.2990 C.ar    
  19 N19            3.6096     7.8222     0.1925 N.3     
  20 C20            4.9794     8.3322     0.3500 C.3     
  21 C21            4.9703     9.8565     0.2075 C.3     
  22 O22            4.0708    10.4148     1.1691 O.3     
  23 C23            2.7274     9.9403     1.0443 C.3     
  24 C24            2.7139     8.4168     1.1952 C.3     
  25 C25            2.5302     0.1112     0.4538 C.3     
  26 F26           -1.6221     0.1905    -1.1739 F       
  27 F27           -0.8580     2.1589    -2.0462 F       
  28 F28            0.5050     0.3261    -1.9963 F       
  29 O29           -0.6117     1.0940     1.0391 O.2     
  30 H30            1.4672     6.3076    -0.0165 H       
  31 H31            5.7044     6.2599     0.5555 H       
  32 H32            5.7055     3.8311     0.6835 H       
  33 H33           -0.9666     3.7137     1.7573 H       
  34 H34           -3.1033     4.8770     1.3977 H       
  35 H35           -3.4849     6.1468    -0.6745 H       
  36 H36           -1.7341     6.2614    -2.3989 H       
  37 H37            0.4146     5.1154    -2.0550 H       
  38 H38            5.3577     8.0611     1.3357 H       
  39 H39            5.6198     7.8987    -0.4182 H       
  40 H40            5.9742    10.2443     0.3802 H       
  41 H41            4.6429    10.1263    -0.7965 H       
  42 H42            2.1093    10.3886     1.8221 H       
  43 H43            2.3349    10.2125     0.0645 H       
  44 H44            1.7005     8.0451     1.0440 H       
  45 H45            3.0559     8.1470     2.1944 H       
  46 H46            2.4888    -0.1937     1.4994 H       
  47 H47            1.6877    -0.3224    -0.0849 H       
  48 H48            3.4630    -0.2372     0.0104 H       
@<TRIPOS>BOND
   1    1    2 1
   2    1    5 1
   3    1   29 2
   4    2   26 1
   5    2   27 1
   6    2   28 1
   7    3    4 ar
   8    3   12 ar
   9    4    5 ar
  10    4   25 1
  11    5    6 ar
  12    6    7 ar
  13    6   13 1
  14    7    8 ar
  15    7   12 ar
  16    8    9 ar
  17    8   30 1
  18    9   10 ar
  19    9   19 1
  20   10   11 ar
  21   10   31 1
  22   11   12 ar
  23   11   32 1
  24   13   14 ar
  25   13   18 ar
  26   14   15 ar
  27   14   33 1
  28   15   16 ar
  29   15   34 1
  30   16   17 ar
  31   16   35 1
  32   17   18 ar
  33   17   36 1
  34   18   37 1
  35   19   20 1
  36   19   24 1
  37   20   21 1
  38   20   38 1
  39   20   39 1
  40   21   22 1
  41   21   40 1
  42   21   41 1
  43   22   23 1
  44   23   24 1
  45   23   42 1
  46   23   43 1
  47   24   44 1
  48   24   45 1
  49   25   46 1
  50   25   47 1
  51   25   48 1

#	End of record

