#	Name: ASD02038029
#	Creating user name:	WinNT
#	Creation time:	15. 06. 2019 20:16

#	Modifying user name:	WinNT
#	Modification time:	15. 06. 2019 20:16

#	Program:	/corina/corina34_cracker 3.40 0067  02.08.2006

@<TRIPOS>MOLECULE
ASD02038029
  46   48    0    0    0
SMALL
NO_CHARGES


@<TRIPOS>ATOM
   1 C1            -0.0000     1.3731    -0.0354 C.ar    
   2 N2             1.1955     2.0988    -0.0992 N.am    
   3 N3             2.3162     4.1441     0.0016 N.am    
   4 C4             1.1670     3.4463    -0.0923 C.2     
   5 C5             5.6925     5.8622    -1.9365 C.3     
   6 O6             6.9948     5.3954    -1.5788 O.3     
   7 C7             8.0149     5.7043    -2.4233 C.ar    
   8 C8             9.3046     5.2824    -2.1364 C.ar    
   9 C9             7.7646     6.4364    -3.5744 C.ar    
  10 C10            8.8008     6.7501    -4.4323 C.ar    
  11 C11           10.0915     6.3335    -4.1423 C.ar    
  12 C12           10.3408     5.5962    -2.9943 C.ar    
  13 O13            0.1045     4.0323    -0.1708 O.2     
  14 C14           -1.0827     1.8773     0.6729 C.ar    
  15 C15            2.3133     5.6093    -0.1076 C.3     
  16 C16            3.3130     6.0249    -1.1914 C.3     
  17 C17            4.6831     5.4209    -0.8747 C.3     
  18 C18            4.5809     3.8939    -0.8717 C.3     
  19 C19            3.5949     3.4546     0.2213 C.3     
  20 O20           11.1114     6.6417    -4.9873 O.3     
  21 C21           -0.1070     0.1505    -0.6849 C.ar    
  22 C22           -1.2876    -0.5633    -0.6208 C.ar    
  23 C23           -2.3635    -0.0608     0.0897 C.ar    
  24 C24           -2.2628     1.1621     0.7296 C.ar    
  25 Cl25          -3.8463    -0.9602     0.1679 Cl      
  26 H26            2.0443     1.6319    -0.1485 H       
  27 H27            5.7011     6.9503    -1.9996 H       
  28 H28            5.4094     5.4445    -2.9027 H       
  29 H29            9.4988     4.7088    -1.2422 H       
  30 H30            6.7595     6.7608    -3.8002 H       
  31 H31            8.6058     7.3196    -5.3290 H       
  32 H32           11.3459     5.2721    -2.7683 H       
  33 H33           -1.0020     2.8278     1.1793 H       
  34 H34            1.3155     5.9535    -0.3796 H       
  35 H35            2.6058     6.0475     0.8466 H       
  36 H36            2.9707     5.6620    -2.1606 H       
  37 H37            3.3916     7.1118    -1.2164 H       
  38 H38            5.0137     5.7646     0.1054 H       
  39 H39            4.2267     3.5511    -1.8439 H       
  40 H40            5.5619     3.4641    -0.6692 H       
  41 H41            3.9943     3.7174     1.2008 H       
  42 H42            3.4421     2.3769     0.1639 H       
  43 H43           11.5485     7.4806    -4.7867 H       
  44 H44            0.7323    -0.2417    -1.2402 H       
  45 H45           -1.3713    -1.5142    -1.1258 H       
  46 H46           -3.1040     1.5520     1.2835 H       
@<TRIPOS>BOND
   1    1   21 ar
   2    1    2 1
   3    1   14 ar
   4    2    4 am
   5    2   26 1
   6    3    4 am
   7    3   15 1
   8    3   19 1
   9    4   13 2
  10    5    6 1
  11    5   17 1
  12    5   27 1
  13    5   28 1
  14    6    7 1
  15    7    8 ar
  16    7    9 ar
  17    8   12 ar
  18    8   29 1
  19    9   10 ar
  20    9   30 1
  21   10   11 ar
  22   10   31 1
  23   11   12 ar
  24   11   20 1
  25   12   32 1
  26   14   24 ar
  27   14   33 1
  28   15   16 1
  29   15   34 1
  30   15   35 1
  31   16   17 1
  32   16   36 1
  33   16   37 1
  34   17   18 1
  35   17   38 1
  36   18   19 1
  37   18   39 1
  38   18   40 1
  39   19   41 1
  40   19   42 1
  41   20   43 1
  42   21   22 ar
  43   21   44 1
  44   22   23 ar
  45   22   45 1
  46   23   24 ar
  47   23   25 1
  48   24   46 1

#	End of record

