#	Name: ASD05503034
#	Creating user name:	WinNT
#	Creation time:	15. 06. 2019 21:01

#	Modifying user name:	WinNT
#	Modification time:	15. 06. 2019 21:01

#	Program:	/corina/corina34_cracker 3.40 0067  02.08.2006

@<TRIPOS>MOLECULE
ASD05503034
  39   40    0    0    0
SMALL
NO_CHARGES


@<TRIPOS>ATOM
   1 C1            -0.1562     1.3603     0.4554 C.ar    
   2 C2            -0.0920    -0.0180     0.2951 C.ar    
   3 C3             1.1412    -0.6489     0.2139 C.ar    
   4 C4             2.3066     0.0996     0.2931 C.ar    
   5 C5             2.2356     1.4781     0.4535 C.ar    
   6 C6             1.0064     2.1031     0.5340 C.ar    
   7 N7            -1.2698    -0.7694     0.2161 N.am    
   8 C8            -1.3239    -1.8558    -0.5797 C.2     
   9 C9            -2.5487    -2.7337    -0.5741 C.3     
  10 O10           -0.3868    -2.1269    -1.3004 O.2     
  11 C11           -2.3532    -3.8882    -1.5588 C.3     
  12 C12           -3.5968    -4.7796    -1.5530 C.3     
  13 N13            3.5515    -0.5325     0.2122 N.am    
  14 C14            4.5823     0.0848    -0.3984 C.2     
  15 C15            5.8667    -0.6224    -0.5749 C.ar    
  16 O16            4.4548     1.2238    -0.8040 O.2     
  17 C17            6.8564    -0.5364     0.4078 C.ar    
  18 C18            8.0549    -1.2010     0.2357 C.ar    
  19 C19            8.2764    -1.9501    -0.9056 C.ar    
  20 C20            7.3012    -2.0395    -1.8831 C.ar    
  21 C21            6.0962    -1.3856    -1.7228 C.ar    
  22 Br22           4.7653    -1.5094    -3.0604 Br      
  23 Cl23           6.5805     0.4038     1.8409 Cl      
  24 H24           -1.1157     1.8525     0.5141 H       
  25 H25            1.1936    -1.7205     0.0897 H       
  26 H26            3.1425     2.0614     0.5156 H       
  27 H27            0.9538     3.1746     0.6582 H       
  28 H28           -2.0472    -0.5084     0.7341 H       
  29 H29           -2.7047    -3.1332     0.4280 H       
  30 H30           -3.4179    -2.1466    -0.8705 H       
  31 H31           -2.1972    -3.4887    -2.5608 H       
  32 H32           -1.4840    -4.4754    -1.2623 H       
  33 H33           -4.4660    -4.1924    -1.8495 H       
  34 H34           -3.4575    -5.6021    -2.2546 H       
  35 H35           -3.7528    -5.1791    -0.5510 H       
  36 H36            3.6730    -1.4152     0.5955 H       
  37 H37            8.8210    -1.1354     0.9941 H       
  38 H38            9.2155    -2.4676    -1.0346 H       
  39 H39            7.4817    -2.6257    -2.7720 H       
@<TRIPOS>BOND
   1    1    2 ar
   2    1    6 ar
   3    1   24 1
   4    2    3 ar
   5    2    7 1
   6    3    4 ar
   7    3   25 1
   8    4    5 ar
   9    4   13 1
  10    5    6 ar
  11    5   26 1
  12    6   27 1
  13    7    8 am
  14    7   28 1
  15    8    9 1
  16    8   10 2
  17    9   11 1
  18    9   29 1
  19    9   30 1
  20   11   12 1
  21   11   31 1
  22   11   32 1
  23   12   33 1
  24   12   34 1
  25   12   35 1
  26   13   14 am
  27   13   36 1
  28   14   15 1
  29   14   16 2
  30   15   17 ar
  31   15   21 ar
  32   17   18 ar
  33   17   23 1
  34   18   19 ar
  35   18   37 1
  36   19   20 ar
  37   19   38 1
  38   20   21 ar
  39   20   39 1
  40   21   22 1

#	End of record

