#	Name: ASD03091464
#	Creating user name:	WinNT
#	Creation time:	15. 06. 2019 20:30

#	Modifying user name:	WinNT
#	Modification time:	15. 06. 2019 20:30

#	Program:	/corina/corina34_cracker 3.40 0067  02.08.2006

@<TRIPOS>MOLECULE
ASD03091464
  49   52    0    0    0
SMALL
NO_CHARGES


@<TRIPOS>ATOM
   1 C1            -0.2403     1.5606     0.0652 C.3     
   2 C2            -0.1554     0.0323     0.0186 C.3     
   3 N3             1.2502    -0.3738    -0.1141 N.3     
   4 C4             2.0391     0.0680     1.0442 C.3     
   5 C5             2.0162     1.5972     1.1203 C.3     
   6 C6             1.1763     2.1386    -0.0435 C.3     
   7 O7             2.5022     3.9562     2.3336 O.2     
   8 C8             1.7300     3.2192     2.9159 C.2     
   9 N9             1.4213     2.0166     2.3917 N.am    
  10 C10            1.5877     4.8023     4.6864 C.ar    
  11 N11            1.1827     3.6051     4.0855 N.am    
  12 C12            1.8000     1.6606    -1.3608 C.3     
  13 C13            1.8291     0.1296    -1.3674 C.3     
  14 C14            0.6712     5.5725     5.3900 C.ar    
  15 C15            2.9083     5.2197     4.5851 C.ar    
  16 C16            3.3050     6.4016     5.1796 C.ar    
  17 C17            2.3889     7.1687     5.8756 C.ar    
  18 C18            1.0742     6.7534     5.9823 C.ar    
  19 C19            1.4376    -0.5158     2.3242 C.3     
  20 C20            1.5690    -2.0169     2.3017 C.ar    
  21 C21            2.6904    -2.6290     2.8283 C.ar    
  22 C22            0.5636    -2.8017     1.7574 C.ar    
  23 C23            0.7275    -4.1782     1.7583 C.ar    
  24 C24            1.8796    -4.7190     2.2978 C.ar    
  25 N25            2.8127    -3.9421     2.8118 N.ar    
  26 H26           -0.8456     1.9184    -0.7676 H       
  27 H27           -0.6908     1.8728     1.0074 H       
  28 H28           -0.5686    -0.3831     0.9378 H       
  29 H29           -0.7229    -0.3376    -0.8353 H       
  30 H30            3.0679    -0.2754     0.9359 H       
  31 H31            3.0335     1.9818     1.0464 H       
  32 H32            1.1409     3.2274    -0.0054 H       
  33 H33            0.8053     1.4287     2.8562 H       
  34 H34            0.5081     3.0529     4.5109 H       
  35 H35            1.2018     2.0181    -2.1990 H       
  36 H36            2.8163     2.0455    -1.4446 H       
  37 H37            2.8596    -0.2142    -1.4559 H       
  38 H38            1.2477    -0.2416    -2.2114 H       
  39 H39           -0.3557     5.2487     5.4738 H       
  40 H40            3.6245     4.6206     4.0423 H       
  41 H41            4.3319     6.7267     5.1012 H       
  42 H42            2.7016     8.0923     6.3399 H       
  43 H43            0.3610     7.3548     6.5265 H       
  44 H44            1.9677    -0.1176     3.1893 H       
  45 H45            0.3838    -0.2443     2.3871 H       
  46 H46            3.4759    -2.0251     3.2580 H       
  47 H47           -0.3262    -2.3512     1.3431 H       
  48 H48           -0.0354    -4.8201     1.3431 H       
  49 H49            2.0149    -5.7905     2.3024 H       
@<TRIPOS>BOND
   1    1    2 1
   2    1    6 1
   3    1   26 1
   4    1   27 1
   5    2    3 1
   6    2   28 1
   7    2   29 1
   8    3    4 1
   9    3   13 1
  10    4    5 1
  11    4   19 1
  12    4   30 1
  13    5    6 1
  14    5    9 1
  15    5   31 1
  16    6   12 1
  17    6   32 1
  18    7    8 2
  19    8    9 am
  20    8   11 am
  21    9   33 1
  22   10   11 1
  23   10   14 ar
  24   10   15 ar
  25   11   34 1
  26   12   13 1
  27   12   35 1
  28   12   36 1
  29   13   37 1
  30   13   38 1
  31   14   18 ar
  32   14   39 1
  33   15   16 ar
  34   15   40 1
  35   16   17 ar
  36   16   41 1
  37   17   18 ar
  38   17   42 1
  39   18   43 1
  40   19   20 1
  41   19   44 1
  42   19   45 1
  43   20   21 ar
  44   20   22 ar
  45   21   25 ar
  46   21   46 1
  47   22   23 ar
  48   22   47 1
  49   23   24 ar
  50   23   48 1
  51   24   25 ar
  52   24   49 1

#	End of record

