#	Name: ASD00840277
#	Creating user name:	WinNT
#	Creation time:	15. 06. 2019 18:38

#	Modifying user name:	WinNT
#	Modification time:	15. 06. 2019 18:38

#	Program:	/corina/corina34_cracker 3.40 0067  02.08.2006

@<TRIPOS>MOLECULE
ASD00840277
  86   91    0    0    0
SMALL
NO_CHARGES


@<TRIPOS>ATOM
   1 F1            -0.1204    -3.1615     4.7117 F       
   2 N2            -0.0147     1.3153     0.0242 N.ar    
   3 C3             0.0025    -0.0070     0.0104 C.ar    
   4 C4             1.2069    -0.6991    -0.0071 C.ar    
   5 C5             2.3930     0.0137    -0.0099 C.ar    
   6 C6             2.3320     1.4006     0.0049 C.ar    
   7 C7             1.0996     2.0223     0.0219 C.ar    
   8 C8             1.2216    -2.2060    -0.0223 C.3     
   9 C9             0.4763    -2.7314    -1.2307 C.2     
  10 N10            2.5991    -2.7046    -0.0121 N.am    
  11 C11            3.4466    -2.3635    -1.0029 C.2     
  12 N12            4.7401    -2.7371    -0.9417 N.am    
  13 O13            3.0443    -1.7187    -1.9520 O.2     
  14 C14            5.6552    -2.4758    -2.0632 C.3     
  15 C15            6.9058    -1.7777    -1.5184 C.3     
  16 N16            7.4742    -2.5798    -0.4269 N.3     
  17 C17            6.5397    -2.6818     0.7020 C.3     
  18 C18            5.2755    -3.4114     0.2507 C.3     
  19 C19            8.7676    -2.0358     0.0079 C.3     
  20 C20            9.2692    -2.8188     1.2244 C.3     
  21 C21           10.6444    -2.2877     1.6352 C.3     
  22 N22           11.5822    -2.4354     0.5148 N.3     
  23 C23           11.1459    -1.6540    -0.6494 C.3     
  24 C24            9.7856    -2.1662    -1.1284 C.3     
  25 H25           12.5186    -2.1804     0.7911 H       
  26 O26            0.7575    -2.5315    -2.3935 O.2     
  27 N27           -0.5548    -3.4614    -0.7732 N.am    
  28 C28            0.4480    -2.7549     1.1544 C.ar    
  29 C29           -0.6000    -3.4954     0.6221 C.ar    
  30 C30            0.6115    -2.6412     2.5166 C.ar    
  31 C31           -0.2767    -3.2707     3.3742 C.ar    
  32 C32           -1.3259    -4.0121     2.8550 C.ar    
  33 C33           -1.4898    -4.1261     1.4887 C.ar    
  34 Cl34          -2.4396    -4.8015     3.9275 Cl      
  35 C35           -1.0195    -5.8484    -2.0619 C.ar    
  36 C36            0.1584    -6.0106    -2.7762 C.ar    
  37 C37           -1.6973    -6.9556    -1.5890 C.ar    
  38 C38           -1.2024    -8.2243    -1.8270 C.ar    
  39 C39           -0.0283    -8.3887    -2.5389 C.ar    
  40 C40            0.6529    -7.2851    -3.0141 C.ar    
  41 H41            0.3563    -9.3809    -2.7235 H       
  42 O42            0.8268    -4.9232    -3.2428 O.3     
  43 C43            2.0327    -5.1657    -3.9702 C.3     
  44 C44            2.6390    -3.8320    -4.4114 C.3     
  45 O45           -1.1673    -0.6942     0.0138 O.3     
  46 C46           -3.5778    -0.8662     0.0336 C.3     
  47 C47           -2.3715     0.0749     0.0325 C.3     
  48 S48           -1.6468    -4.2314    -1.7514 S.o2    
  49 O49           -2.8277    -4.4006    -0.9792 O.2     
  50 O50           -1.6236    -3.5462    -2.9960 O.2     
  51 H51            3.3444    -0.4972    -0.0230 H       
  52 H52            3.2391     1.9868     0.0035 H       
  53 H53            1.0467     3.1009     0.0331 H       
  54 H54            2.9011    -3.2803     0.7078 H       
  55 H55            5.9371    -3.4181    -2.5329 H       
  56 H56            5.1650    -1.8317    -2.7933 H       
  57 H57            7.6418    -1.6754    -2.3159 H       
  58 H58            6.6368    -0.7906    -1.1424 H       
  59 H59            7.0101    -3.2351     1.5147 H       
  60 H60            6.2757    -1.6821     1.0470 H       
  61 H61            4.5346    -3.3887     1.0498 H       
  62 H62            5.5181    -4.4445     0.0018 H       
  63 H63            8.6500    -0.9853     0.2741 H       
  64 H64            8.5695    -2.6948     2.0509 H       
  65 H65            9.3485    -3.8756     0.9695 H       
  66 H66           10.5618    -1.2344     1.9032 H       
  67 H67           11.0108    -2.8527     2.4923 H       
  68 H68           11.0608    -0.6037    -0.3707 H       
  69 H69           11.8764    -1.7587    -1.4516 H       
  70 H70            9.8730    -3.2127    -1.4203 H       
  71 H71            9.4548    -1.5758    -1.9829 H       
  72 H72            1.4310    -2.0624     2.9164 H       
  73 H73           -2.3098    -4.7056     1.0910 H       
  74 H74           -2.6145    -6.8298    -1.0328 H       
  75 H75           -1.7334    -9.0885    -1.4559 H       
  76 H76            1.5694    -7.4140    -3.5707 H       
  77 H77            2.7416    -5.6939    -3.3326 H       
  78 H78            1.8116    -5.7725    -4.8482 H       
  79 H79            2.8601    -3.2252    -3.5333 H       
  80 H80            3.5588    -4.0170    -4.9662 H       
  81 H81            1.9301    -3.3038    -5.0489 H       
  82 H82           -4.4964    -0.2795     0.0479 H       
  83 H83           -3.5563    -1.4856    -0.8630 H       
  84 H84           -3.5403    -1.5040     0.9168 H       
  85 H85           -2.3931     0.6943     0.9291 H       
  86 H86           -2.4091     0.7127    -0.8506 H       
@<TRIPOS>BOND
   1    1   31 1
   2    2    3 ar
   3    2    7 ar
   4    3    4 ar
   5    3   45 1
   6    4    5 ar
   7    4    8 1
   8    5    6 ar
   9    5   51 1
  10    6    7 ar
  11    6   52 1
  12    7   53 1
  13    8    9 1
  14    8   10 1
  15    8   28 1
  16    9   26 2
  17    9   27 am
  18   10   11 am
  19   10   54 1
  20   11   12 am
  21   11   13 2
  22   12   14 1
  23   12   18 1
  24   14   15 1
  25   14   55 1
  26   14   56 1
  27   15   16 1
  28   15   57 1
  29   15   58 1
  30   16   17 1
  31   16   19 1
  32   17   18 1
  33   17   59 1
  34   17   60 1
  35   18   61 1
  36   18   62 1
  37   19   20 1
  38   19   24 1
  39   19   63 1
  40   20   21 1
  41   20   64 1
  42   20   65 1
  43   21   22 1
  44   21   66 1
  45   21   67 1
  46   22   23 1
  47   22   25 1
  48   23   24 1
  49   23   68 1
  50   23   69 1
  51   24   70 1
  52   24   71 1
  53   27   48 am
  54   27   29 1
  55   28   29 ar
  56   28   30 ar
  57   29   33 ar
  58   30   31 ar
  59   30   72 1
  60   31   32 ar
  61   32   33 ar
  62   32   34 1
  63   33   73 1
  64   35   36 ar
  65   35   37 ar
  66   35   48 1
  67   36   42 1
  68   36   40 ar
  69   37   38 ar
  70   37   74 1
  71   38   39 ar
  72   38   75 1
  73   39   40 ar
  74   39   41 1
  75   40   76 1
  76   42   43 1
  77   43   44 1
  78   43   77 1
  79   43   78 1
  80   44   79 1
  81   44   80 1
  82   44   81 1
  83   45   47 1
  84   46   47 1
  85   46   82 1
  86   46   83 1
  87   46   84 1
  88   47   85 1
  89   47   86 1
  90   48   49 2
  91   48   50 2

#	End of record

