#	Name: ASD01911302
#	Creating user name:	WinNT
#	Creation time:	15. 06. 2019 19:57

#	Modifying user name:	WinNT
#	Modification time:	15. 06. 2019 19:57

#	Program:	/corina/corina34_cracker 3.40 0067  02.08.2006

@<TRIPOS>MOLECULE
ASD01911302
  33   35    0    0    0
SMALL
NO_CHARGES


@<TRIPOS>ATOM
   1 C1            -0.0169     1.3934     0.0097 C.ar    
   2 C2             0.0021    -0.0041     0.0020 C.ar    
   3 N3             1.1463    -0.6798    -0.0091 N.ar    
   4 C4             2.3160    -0.0622    -0.0129 C.ar    
   5 C5             2.3599     1.3446    -0.0126 C.ar    
   6 C6             1.1694     2.0801     0.0021 C.ar    
   7 O7             3.4586    -0.7855    -0.0101 O.3     
   8 C8             4.6561    -0.1788    -0.4944 C.3     
   9 C9             4.8826     1.1547     0.2328 C.3     
  10 C10            3.6647     2.0220    -0.0331 C.2     
  11 O11            3.7633     3.2114    -0.2515 O.2     
  12 C12           -1.2367    -0.7224     0.0066 C.1     
  13 C13           -2.2524    -1.3112     0.0104 C.1     
  14 C14           -3.5258    -2.0496     0.0152 C.3     
  15 C15           -3.2567    -3.5646     0.0051 C.3     
  16 C16           -3.8827    -4.1320     1.2959 C.3     
  17 C17           -4.9729    -3.0991     1.6751 C.3     
  18 C18           -4.3060    -1.7492     1.3116 C.3     
  19 H19           -0.9561     1.9265     0.0171 H       
  20 H20            1.1849     3.1600     0.0073 H       
  21 H21            5.5007    -0.8423    -0.3086 H       
  22 H22            4.5644     0.0022    -1.5654 H       
  23 H23            4.9878     0.9805     1.3037 H       
  24 H24            5.7773     1.6418    -0.1548 H       
  25 H25           -4.1221    -1.7705    -0.8535 H       
  26 H26           -3.7231    -4.0209    -0.8680 H       
  27 H27           -2.1831    -3.7531    -0.0033 H       
  28 H28           -4.3309    -5.1072     1.1058 H       
  29 H29           -3.1334    -4.2026     2.0843 H       
  30 H30           -5.8754    -3.2555     1.0843 H       
  31 H31           -5.1949    -3.1456     2.7412 H       
  32 H32           -3.6250    -1.4350     2.1026 H       
  33 H33           -5.0630    -0.9855     1.1331 H       
@<TRIPOS>BOND
   1    1    2 ar
   2    1    6 ar
   3    1   19 1
   4    2    3 ar
   5    2   12 1
   6    3    4 ar
   7    4    5 ar
   8    4    7 1
   9    5    6 ar
  10    5   10 1
  11    6   20 1
  12    7    8 1
  13    8    9 1
  14    8   21 1
  15    8   22 1
  16    9   10 1
  17    9   23 1
  18    9   24 1
  19   10   11 2
  20   12   13 3
  21   13   14 1
  22   14   15 1
  23   14   18 1
  24   14   25 1
  25   15   16 1
  26   15   26 1
  27   15   27 1
  28   16   17 1
  29   16   28 1
  30   16   29 1
  31   17   18 1
  32   17   30 1
  33   17   31 1
  34   18   32 1
  35   18   33 1

#	End of record

