#	Name: ASD08170094
#	Creating user name:	WinNT
#	Creation time:	15. 06. 2019 21:17

#	Modifying user name:	WinNT
#	Modification time:	15. 06. 2019 21:17

#	Program:	/corina/corina34_cracker 3.40 0067  02.08.2006

@<TRIPOS>MOLECULE
ASD08170094
  72   75    0    0    0
SMALL
NO_CHARGES


@<TRIPOS>ATOM
   1 C1            -0.0187     1.5258     0.0104 C.3     
   2 C2             0.0021    -0.0041     0.0020 C.3     
   3 C3             1.4167     2.0553    -0.0004 C.3     
   4 C4             1.3960     3.5852     0.0080 C.3     
   5 C5             2.8098     4.1068    -0.0027 C.2     
   6 C6            -1.4117    -0.5257     0.0127 C.2     
   7 S7             3.7994     4.4593     1.4143 S.3     
   8 C8             5.0767     4.9397     0.3787 C.2     
   9 N9             4.6864     4.8067    -0.8531 N.2     
  10 N10            3.5184     4.3716    -1.0541 N.2     
  11 S11           -2.3742    -0.8935     1.4445 S.3     
  12 N12           -2.1404    -0.7792    -1.0277 N.2     
  13 N13           -3.3059    -1.2123    -0.8091 N.2     
  14 C14           -3.6711    -1.3628     0.4283 C.2     
  15 N15           -4.9102    -1.8264     0.8572 N.am    
  16 C16           -5.8529    -2.1632    -0.0452 C.2     
  17 C17           -7.1955    -2.6655     0.4196 C.3     
  18 O18           -5.6206    -2.0619    -1.2313 O.2     
  19 C19           -8.2289    -2.3934    -0.6431 C.ar    
  20 C20           -7.1149    -4.1712     0.6790 C.3     
  21 O21           -7.5642    -1.9934     1.6256 O.3     
  22 C22           -8.5057    -4.7034     1.0301 C.3     
  23 N23            6.3247     5.3964     0.7887 N.am    
  24 C24            7.2491     5.7455    -0.1278 C.2     
  25 C25            8.6014     6.2404     0.3166 C.3     
  26 O26            6.9926     5.6614    -1.3102 O.2     
  27 C27            9.1970     7.1098    -0.7607 C.ar    
  28 O28            8.4591     7.0009     1.5180 O.3     
  29 C29            9.5219     5.0460     0.5751 C.3     
  30 C30            8.8592     4.0989     1.5775 C.3     
  31 C31           -8.9306    -1.2025    -0.6360 C.ar    
  32 C32           -8.4711    -3.3325    -1.6281 C.ar    
  33 C33           -9.4190    -3.0830    -2.6029 C.ar    
  34 C34          -10.1251    -1.8946    -2.5923 C.ar    
  35 C35           -9.8786    -0.9530    -1.6107 C.ar    
  36 C36            8.9561     8.4710    -0.7623 C.ar    
  37 C37            9.9889     6.5468    -1.7440 C.ar    
  38 C38           10.5353     7.3443    -2.7322 C.ar    
  39 C39           10.2894     8.7046    -2.7373 C.ar    
  40 C40            9.5025     9.2684    -1.7505 C.ar    
  41 H41           -0.5459     1.8868    -0.8726 H       
  42 H42           -0.5289     1.8773     0.9072 H       
  43 H43            0.5123    -0.3556    -0.8948 H       
  44 H44            0.5293    -0.3651     0.8851 H       
  45 H45            1.9439     1.6943     0.8826 H       
  46 H46            1.9269     1.7038    -0.8972 H       
  47 H47            0.8688     3.9463    -0.8751 H       
  48 H48            0.8858     3.9367     0.9048 H       
  49 H49           -5.0959    -1.9073     1.8058 H       
  50 H50           -6.7482    -4.6748    -0.2155 H       
  51 H51           -6.4332    -4.3610     1.5081 H       
  52 H52           -7.6345    -1.0332     1.5351 H       
  53 H53           -8.4482    -5.7761     1.2149 H       
  54 H54           -8.8723    -4.1998     1.9245 H       
  55 H55           -9.1873    -4.5136     0.2010 H       
  56 H56            6.5298     5.4636     1.7344 H       
  57 H57            7.8873     7.7755     1.4278 H       
  58 H58            9.7017     4.5167    -0.3606 H       
  59 H59           10.4699     5.3990     0.9808 H       
  60 H60            8.6793     4.6283     2.5132 H       
  61 H61            7.9111     3.7459     1.1718 H       
  62 H62            9.5150     3.2480     1.7617 H       
  63 H63           -8.7385    -0.4670     0.1312 H       
  64 H64           -7.9195    -4.2610    -1.6364 H       
  65 H65           -9.6077    -3.8164    -3.3729 H       
  66 H66          -10.8654    -1.6995    -3.3540 H       
  67 H67          -10.4302    -0.0245    -1.6025 H       
  68 H68            8.3408     8.9114     0.0083 H       
  69 H69           10.1810     5.4841    -1.7400 H       
  70 H70           11.1545     6.9046    -3.5000 H       
  71 H71           10.7166     9.3277    -3.5091 H       
  72 H72            9.3104    10.3312    -1.7544 H       
@<TRIPOS>BOND
   1    1    2 1
   2    1    3 1
   3    1   41 1
   4    1   42 1
   5    2    6 1
   6    2   43 1
   7    2   44 1
   8    3    4 1
   9    3   45 1
  10    3   46 1
  11    4    5 1
  12    4   47 1
  13    4   48 1
  14    5    7 1
  15    5   10 2
  16    6   11 1
  17    6   12 2
  18    7    8 1
  19    8    9 2
  20    8   23 1
  21    9   10 1
  22   11   14 1
  23   12   13 1
  24   13   14 2
  25   14   15 1
  26   15   16 am
  27   15   49 1
  28   16   17 1
  29   16   18 2
  30   17   19 1
  31   17   20 1
  32   17   21 1
  33   19   31 ar
  34   19   32 ar
  35   20   22 1
  36   20   50 1
  37   20   51 1
  38   21   52 1
  39   22   53 1
  40   22   54 1
  41   22   55 1
  42   23   24 am
  43   23   56 1
  44   24   25 1
  45   24   26 2
  46   25   27 1
  47   25   28 1
  48   25   29 1
  49   27   36 ar
  50   27   37 ar
  51   28   57 1
  52   29   30 1
  53   29   58 1
  54   29   59 1
  55   30   60 1
  56   30   61 1
  57   30   62 1
  58   31   35 ar
  59   31   63 1
  60   32   33 ar
  61   32   64 1
  62   33   34 ar
  63   33   65 1
  64   34   35 ar
  65   34   66 1
  66   35   67 1
  67   36   40 ar
  68   36   68 1
  69   37   38 ar
  70   37   69 1
  71   38   39 ar
  72   38   70 1
  73   39   40 ar
  74   39   71 1
  75   40   72 1

#	End of record

