#	Name: ASD03930010
#	Creating user name:	WinNT
#	Creation time:	15. 06. 2019 20:47

#	Modifying user name:	WinNT
#	Modification time:	15. 06. 2019 20:47

#	Program:	/corina/corina34_cracker 3.40 0067  02.08.2006

@<TRIPOS>MOLECULE
ASD03930010
  27   29    0    0    0
SMALL
NO_CHARGES


@<TRIPOS>ATOM
   1 C1            -0.0164     1.3555     0.0095 C.ar    
   2 C2             0.0021    -0.0041     0.0020 C.ar    
   3 C3             1.2067    -0.6964     0.0005 C.ar    
   4 C4             2.4116    -0.0452     0.0049 C.ar    
   5 C5             2.4302     1.3566    -0.0189 C.ar    
   6 C6             1.1968     2.0644     0.0017 C.ar    
   7 C7             3.6459    -0.9046     0.0589 C.3     
   8 N8             4.7697    -0.2715    -0.6421 N.am    
   9 S9             5.1699     1.2726    -0.1507 S.o2    
  10 C10            3.6155     2.1133    -0.0829 C.ar    
  11 C11            3.5819     3.4700    -0.0896 C.ar    
  12 C12            2.3709     4.1572    -0.0389 C.ar    
  13 C13            1.1947     3.4713     0.0074 C.ar    
  14 O14            5.6437     1.1714     1.1852 O.2     
  15 O15            5.9135     1.8631    -1.2079 O.2     
  16 C16            5.4984    -0.9561    -1.7128 C.3     
  17 F17            0.0240     4.1435     0.0602 F       
  18 H18           -0.9567     1.8867     0.0168 H       
  19 H19           -0.9290    -0.5513    -0.0025 H       
  20 H20            1.1926    -1.7763    -0.0038 H       
  21 H21            3.9217    -1.0676     1.1008 H       
  22 H22            3.4314    -1.8665    -0.4067 H       
  23 H23            4.5072     4.0251    -0.1346 H       
  24 H24            2.3646     5.2372    -0.0365 H       
  25 H25            5.0276    -0.7362    -2.6710 H       
  26 H26            6.5319    -0.6100    -1.7279 H       
  27 H27            5.4780    -2.0315    -1.5363 H       
@<TRIPOS>BOND
   1    1    2 ar
   2    1    6 ar
   3    1   18 1
   4    2    3 ar
   5    2   19 1
   6    3    4 ar
   7    3   20 1
   8    4    5 ar
   9    4    7 1
  10    5    6 ar
  11    5   10 ar
  12    6   13 ar
  13    7    8 1
  14    7   21 1
  15    7   22 1
  16    8    9 am
  17    8   16 1
  18    9   10 1
  19    9   14 2
  20    9   15 2
  21   10   11 ar
  22   11   12 ar
  23   11   23 1
  24   12   13 ar
  25   12   24 1
  26   13   17 1
  27   16   25 1
  28   16   26 1
  29   16   27 1

#	End of record

