#	Name: ASD01811948
#	Creating user name:	WinNT
#	Creation time:	15. 06. 2019 19:27

#	Modifying user name:	WinNT
#	Modification time:	15. 06. 2019 19:27

#	Program:	/corina/corina34_cracker 3.40 0067  02.08.2006

@<TRIPOS>MOLECULE
ASD01811948
  54   58    0    0    0
SMALL
NO_CHARGES


@<TRIPOS>ATOM
   1 C1            -0.0218     1.7545     0.0117 C.2     
   2 C2             0.7647     3.9314     0.0154 C.2     
   3 N3             0.9880     2.6510     0.0069 N.2     
   4 C4            -1.5613     3.6163     0.0281 C.2     
   5 N5            -0.4946     4.4395     0.0296 N.am    
   6 C6            -0.6944     5.8908     0.0392 C.3     
   7 C7            -0.0608     6.5012    -1.2126 C.3     
   8 C8            -0.2695     8.0168    -1.2025 C.3     
   9 C9             0.3868     8.6137     0.0441 C.3     
  10 C10           -0.2468     8.0034     1.2959 C.3     
  11 C11           -0.0381     6.4877     1.2858 C.3     
  12 O12           -2.6938     4.0669     0.0404 O.2     
  13 O13           -0.6738     5.9437    -2.3768 O.3     
  14 S14            0.0021    -0.0041     0.0020 S.3     
  15 C15           -1.7490    -0.0939     0.0175 C.2     
  16 C16           -2.2899     1.1105     0.0289 C.2     
  17 C17           -1.3390     2.2041     0.0202 C.2     
  18 C18           -2.5351    -1.3796     0.0173 C.3     
  19 C19           -2.8096    -1.8004    -1.4035 C.ar    
  20 C20           -3.9555    -1.3626    -2.0426 C.ar    
  21 C21           -1.9118    -2.6183    -2.0655 C.ar    
  22 C22           -2.1582    -3.0067    -3.3668 C.ar    
  23 C23           -3.3138    -2.5733    -4.0135 C.ar    
  24 C24           -4.2121    -1.7452    -3.3436 C.ar    
  25 C25           -3.5841    -2.9876    -5.4126 C.ar    
  26 C26           -4.7397    -2.5542    -6.0593 C.ar    
  27 C27           -4.9862    -2.9427    -7.3606 C.ar    
  28 C28           -4.0885    -3.7607    -8.0226 C.ar    
  29 C29           -2.9400    -4.1942    -7.3853 C.ar    
  30 C30           -2.6805    -3.8068    -6.0862 C.ar    
  31 H31            1.6044     4.6105     0.0114 H       
  32 H32           -1.7619     6.1105     0.0501 H       
  33 H33            1.0067     6.2815    -1.2235 H       
  34 H34            0.1818     8.4517    -2.0943 H       
  35 H35           -1.3371     8.2365    -1.1916 H       
  36 H36            1.4544     8.3940     0.0332 H       
  37 H37            0.2381     9.6935     0.0513 H       
  38 H38            0.2208     8.4286     2.1839 H       
  39 H39           -1.3143     8.2231     1.3068 H       
  40 H40           -0.4894     6.0528     2.1776 H       
  41 H41            1.0295     6.2680     1.2749 H       
  42 H42           -0.3205     6.2859    -3.2094 H       
  43 H43           -3.3583     1.2684     0.0392 H       
  44 H44           -1.9608    -2.1566     0.5219 H       
  45 H45           -3.4794    -1.2283     0.5403 H       
  46 H46           -4.6509    -0.7205    -1.5224 H       
  47 H47           -1.0163    -2.9533    -1.5634 H       
  48 H48           -1.4565    -3.6451    -3.8830 H       
  49 H49           -5.1075    -1.4034    -3.8414 H       
  50 H50           -5.4415    -1.9158    -5.5432 H       
  51 H51           -5.8817    -2.6076    -7.8627 H       
  52 H52           -4.2852    -4.0622    -9.0408 H       
  53 H53           -2.2428    -4.8333    -7.9066 H       
  54 H54           -1.7810    -4.1419    -5.5911 H       
@<TRIPOS>BOND
   1    1   14 1
   2    1    3 1
   3    1   17 2
   4    2    3 2
   5    2    5 1
   6    2   31 1
   7    4    5 am
   8    4   12 2
   9    4   17 1
  10    5    6 1
  11    6    7 1
  12    6   11 1
  13    6   32 1
  14    7    8 1
  15    7   13 1
  16    7   33 1
  17    8    9 1
  18    8   34 1
  19    8   35 1
  20    9   10 1
  21    9   36 1
  22    9   37 1
  23   10   11 1
  24   10   38 1
  25   10   39 1
  26   11   40 1
  27   11   41 1
  28   13   42 1
  29   14   15 1
  30   15   16 2
  31   15   18 1
  32   16   17 1
  33   16   43 1
  34   18   19 1
  35   18   44 1
  36   18   45 1
  37   19   21 ar
  38   19   20 ar
  39   20   24 ar
  40   20   46 1
  41   21   22 ar
  42   21   47 1
  43   22   23 ar
  44   22   48 1
  45   23   24 ar
  46   23   25 1
  47   24   49 1
  48   25   26 ar
  49   25   30 ar
  50   26   27 ar
  51   26   50 1
  52   27   28 ar
  53   27   51 1
  54   28   29 ar
  55   28   52 1
  56   29   30 ar
  57   29   53 1
  58   30   54 1

#	End of record

