#	Name: ASD01813517
#	Creating user name:	WinNT
#	Creation time:	15. 06. 2019 19:30

#	Modifying user name:	WinNT
#	Modification time:	15. 06. 2019 19:30

#	Program:	/corina/corina34_cracker 3.40 0067  02.08.2006

@<TRIPOS>MOLECULE
ASD01813517
  46   50    0    0    0
SMALL
NO_CHARGES


@<TRIPOS>ATOM
   1 C1            -0.0168     1.3825    -0.0465 C.ar    
   2 C2             0.0020    -0.0038    -0.0535 C.ar    
   3 C3             1.1975    -0.6932    -0.0496 C.ar    
   4 C4             2.4040     0.0044    -0.0389 C.ar    
   5 C5             2.3834     1.4096    -0.0323 C.ar    
   6 C6             1.1657     2.0946    -0.0359 C.ar    
   7 N7             3.6050    -0.6734    -0.0339 N.pl3   
   8 C8             4.7898    -0.0496    -0.0228 C.2     
   9 C9             4.8962     1.3266    -0.0150 C.2     
  10 C10            3.6660     2.1351    -0.0211 C.2     
  11 O11            3.7066     3.3531    -0.0152 O.2     
  12 C12            6.2155     1.9737    -0.0018 C.2     
  13 O13            6.3065     3.3187     0.0057 O.3     
  14 O14            7.2249     1.2962     0.0023 O.2     
  15 C15            3.5837    -2.1382    -0.0406 C.3     
  16 C16            3.4403    -2.6321    -1.4571 C.ar    
  17 N17            2.2382    -2.7341    -1.9902 N.ar    
  18 C18            2.0584    -3.1601    -3.2237 C.ar    
  19 C19            3.1478    -3.5219    -4.0150 C.ar    
  20 C20            4.4354    -3.4246    -3.4779 C.ar    
  21 C21            4.5718    -2.9658    -2.1794 C.ar    
  22 C22            2.9446    -4.0020    -5.4023 C.2     
  23 F23            1.1984    -2.0441    -0.0556 F       
  24 F24            1.1457     3.4455    -0.0300 F       
  25 C25            1.9914    -5.0554    -5.7425 C.ar    
  26 C26            1.9843    -5.3281    -7.1110 C.ar    
  27 S27            3.1404    -4.2903    -7.9357 S.3     
  28 C28            3.6117    -3.5048    -6.4416 C.2     
  29 C29            1.1293    -5.7841    -4.8979 C.ar    
  30 C30            0.3041    -6.7383    -5.4100 C.ar    
  31 C31            0.2984    -7.0088    -6.7715 C.ar    
  32 C32            1.1287    -6.3126    -7.6174 C.ar    
  33 H33           -0.9606     1.9075    -0.0538 H       
  34 H34           -0.9294    -0.5504    -0.0617 H       
  35 H35            5.6921    -0.6430    -0.0194 H       
  36 H36            7.1957     3.6986     0.0142 H       
  37 H37            4.5134    -2.5171     0.3839 H       
  38 H38            2.7418    -2.4920     0.5545 H       
  39 H39            1.0584    -3.2301    -3.6254 H       
  40 H40            5.3015    -3.6969    -4.0629 H       
  41 H41            5.5507    -2.8773    -1.7319 H       
  42 H42            4.3522    -2.7217    -6.3722 H       
  43 H43            1.1237    -5.5842    -3.8366 H       
  44 H44           -0.3510    -7.2894    -4.7517 H       
  45 H45           -0.3599    -7.7681    -7.1672 H       
  46 H46            1.1206    -6.5262    -8.6760 H       
@<TRIPOS>BOND
   1    1    2 ar
   2    1    6 ar
   3    1   33 1
   4    2    3 ar
   5    2   34 1
   6    3    4 ar
   7    3   23 1
   8    4    5 ar
   9    4    7 1
  10    5    6 ar
  11    5   10 1
  12    6   24 1
  13    7    8 1
  14    7   15 1
  15    8    9 2
  16    8   35 1
  17    9   10 1
  18    9   12 1
  19   10   11 2
  20   12   13 1
  21   12   14 2
  22   13   36 1
  23   15   16 1
  24   15   37 1
  25   15   38 1
  26   16   17 ar
  27   16   21 ar
  28   17   18 ar
  29   18   19 ar
  30   18   39 1
  31   19   20 ar
  32   19   22 1
  33   20   21 ar
  34   20   40 1
  35   21   41 1
  36   22   25 1
  37   22   28 2
  38   25   26 ar
  39   25   29 ar
  40   26   27 1
  41   26   32 ar
  42   27   28 1
  43   28   42 1
  44   29   30 ar
  45   29   43 1
  46   30   31 ar
  47   30   44 1
  48   31   32 ar
  49   31   45 1
  50   32   46 1

#	End of record

