#	Name: ASD01901566
#	Creating user name:	WinNT
#	Creation time:	15. 06. 2019 19:54

#	Modifying user name:	WinNT
#	Modification time:	15. 06. 2019 19:54

#	Program:	/corina/corina34_cracker 3.40 0067  02.08.2006

@<TRIPOS>MOLECULE
ASD01901566
  47   50    0    0    0
SMALL
NO_CHARGES


@<TRIPOS>ATOM
   1 C1             1.4731     1.2099    -0.1902 C.3     
   2 C2             1.3981    -0.3170    -0.2512 C.3     
   3 C3             1.7975    -0.7918    -1.6498 C.3     
   4 C4             1.7224    -2.3188    -1.7108 C.3     
   5 C5             2.1218    -2.7935    -3.1093 C.3     
   6 N6             2.0500    -4.2556    -3.1677 N.pl3   
   7 N7             3.0956    -5.1325    -2.8611 N.2     
   8 C8             2.7050    -6.3655    -3.0139 C.2     
   9 C9             3.5415    -7.5972    -2.7809 C.3     
  10 C10            1.3125    -6.3419    -3.4503 C.ar    
  11 C11            0.3778    -7.3336    -3.7678 C.ar    
  12 C12           -0.8953    -6.9671    -4.1584 C.ar    
  13 N13           -1.8363    -7.9523    -4.4778 N.pl3   
  14 C14           -1.7689    -9.2080    -3.8663 C.2     
  15 N15           -0.9484    -9.5566    -2.9110 N.2     
  16 N16           -1.1719   -10.8894    -2.5503 N.pl3   
  17 H17           -0.6878   -11.3752    -1.8644 H       
  18 C18           -2.1840   -11.3990    -3.3201 C.ar    
  19 C19           -2.8115   -12.6421    -3.3941 C.ar    
  20 C20           -3.8262   -12.8080    -4.3160 C.ar    
  21 C21           -4.1908   -11.7469    -5.1345 C.ar    
  22 N22           -3.5894   -10.5819    -5.0521 N.ar    
  23 C23           -2.6097   -10.3664    -4.1774 C.ar    
  24 C24           -1.2479    -5.6192    -4.2355 C.ar    
  25 C25           -0.3446    -4.6428    -3.9281 C.ar    
  26 C26            0.9440    -4.9850    -3.5264 C.ar    
  27 H27            2.4916     1.5326    -0.4064 H       
  28 H28            0.7926     1.6368    -0.9270 H       
  29 H29            1.1886     1.5482     0.8061 H       
  30 H30            2.0786    -0.7439     0.4855 H       
  31 H31            0.3796    -0.6397    -0.0350 H       
  32 H32            1.1170    -0.3649    -2.3865 H       
  33 H33            2.8159    -0.4692    -1.8659 H       
  34 H34            2.4029    -2.7457    -0.9740 H       
  35 H35            0.7040    -2.6414    -1.4946 H       
  36 H36            1.4414    -2.3666    -3.8461 H       
  37 H37            3.1403    -2.4709    -3.3255 H       
  38 H38            3.4354    -7.9177    -1.7445 H       
  39 H39            3.2065    -8.3948    -3.4440 H       
  40 H40            4.5877    -7.3699    -2.9856 H       
  41 H41            0.6498    -8.3771    -3.7084 H       
  42 H42           -2.5354    -7.7641    -5.1234 H       
  43 H43           -2.5115   -13.4538    -2.7478 H       
  44 H44           -4.3334   -13.7578    -4.4002 H       
  45 H45           -4.9848   -11.8824    -5.8538 H       
  46 H46           -2.2465    -5.3452    -4.5422 H       
  47 H47           -0.6313    -3.6035    -3.9922 H       
@<TRIPOS>BOND
   1    1    2 1
   2    1   27 1
   3    1   28 1
   4    1   29 1
   5    2    3 1
   6    2   30 1
   7    2   31 1
   8    3    4 1
   9    3   32 1
  10    3   33 1
  11    4    5 1
  12    4   34 1
  13    4   35 1
  14    5    6 1
  15    5   36 1
  16    5   37 1
  17    6   26 1
  18    6    7 1
  19    7    8 2
  20    8    9 1
  21    8   10 1
  22    9   38 1
  23    9   39 1
  24    9   40 1
  25   10   26 ar
  26   10   11 ar
  27   11   12 ar
  28   11   41 1
  29   12   13 1
  30   12   24 ar
  31   13   14 1
  32   13   42 1
  33   14   23 1
  34   14   15 2
  35   15   16 1
  36   16   17 1
  37   16   18 1
  38   18   23 ar
  39   18   19 ar
  40   19   20 ar
  41   19   43 1
  42   20   21 ar
  43   20   44 1
  44   21   22 ar
  45   21   45 1
  46   22   23 ar
  47   24   25 ar
  48   24   46 1
  49   25   26 ar
  50   25   47 1

#	End of record

