#	Name: ASD01230334
#	Creating user name:	WinNT
#	Creation time:	15. 06. 2019 19:14

#	Modifying user name:	WinNT
#	Modification time:	15. 06. 2019 19:14

#	Program:	/corina/corina34_cracker 3.40 0067  02.08.2006

@<TRIPOS>MOLECULE
ASD01230334
  29   30    0    0    0
SMALL
NO_CHARGES


@<TRIPOS>ATOM
   1 C1            -0.0704     1.4043    -0.1679 C.ar    
   2 C2            -0.0860     0.0311    -0.2732 C.ar    
   3 C3             1.1004    -0.6809    -0.3078 C.ar    
   4 C4             2.3052    -0.0057    -0.2226 C.ar    
   5 C5             2.3215     1.3686    -0.1035 C.ar    
   6 C6             1.1419     2.0975    -0.0946 C.ar    
   7 N7             1.0895     3.4843    -0.0546 N.3     
   8 S8             3.8695     2.2082     0.0713 S.o2    
   9 N9             3.4587     3.8265     0.0016 N.am    
  10 C10            2.1718     4.1663     0.6431 C.3     
  11 Cl11           1.0770    -2.4104    -0.4567 Cl      
  12 O12            4.3303     1.9552     1.3915 O.2     
  13 O13            4.6281     1.9238    -1.0961 O.2     
  14 C14            4.3072     4.8298    -0.6462 C.3     
  15 C15           -0.2197     3.9481     0.4237 C.3     
  16 C16           -0.3685     3.6119     1.9088 C.3     
  17 F17           -0.2711     2.2276     2.0856 F       
  18 F18            0.6449     4.2472     2.6346 F       
  19 H19           -1.0019     1.9504    -0.1462 H       
  20 H20           -1.0288    -0.4928    -0.3286 H       
  21 H21            3.2344    -0.5555    -0.2491 H       
  22 H22            2.0141     5.2437     0.5945 H       
  23 H23            2.1906     3.8475     1.6853 H       
  24 H24            5.1988     4.3476    -1.0469 H       
  25 H25            3.7547     5.3038    -1.4574 H       
  26 H26            4.5994     5.5846     0.0839 H       
  27 H27           -0.2957     5.0267     0.2859 H       
  28 H28           -1.0093     3.4531    -0.1418 H       
  29 H29           -1.3400     3.9560     2.2637 H       
@<TRIPOS>BOND
   1    1    2 ar
   2    1    6 ar
   3    1   19 1
   4    2    3 ar
   5    2   20 1
   6    3    4 ar
   7    3   11 1
   8    4    5 ar
   9    4   21 1
  10    5    6 ar
  11    5    8 1
  12    6    7 1
  13    7   10 1
  14    7   15 1
  15    8    9 am
  16    8   12 2
  17    8   13 2
  18    9   10 1
  19    9   14 1
  20   10   22 1
  21   10   23 1
  22   14   24 1
  23   14   25 1
  24   14   26 1
  25   15   16 1
  26   15   27 1
  27   15   28 1
  28   16   17 1
  29   16   18 1
  30   16   29 1

#	End of record

