#	Name: ASD01816730
#	Creating user name:	WinNT
#	Creation time:	15. 06. 2019 19:35

#	Modifying user name:	WinNT
#	Modification time:	15. 06. 2019 19:35

#	Program:	/corina/corina34_cracker 3.40 0067  02.08.2006

@<TRIPOS>MOLECULE
ASD01816730
  61   65    0    0    0
SMALL
NO_CHARGES


@<TRIPOS>ATOM
   1 C1            -0.0167     1.3960     0.0158 C.2     
   2 C2             0.0025    -0.0052    -0.0024 C.2     
   3 C3             1.1989    -0.6602    -0.0248 C.2     
   4 C4             2.3921     0.0815    -0.0292 C.2     
   5 N5             2.3439     1.4491    -0.0107 N.am    
   6 C6             1.1421     2.0927     0.0112 C.2     
   7 C7             3.6230    -0.5886    -0.0521 C.2     
   8 C8             4.7879     0.1231    -0.0566 C.2     
   9 C9             4.7340     1.5284    -0.0380 C.2     
  10 C10            3.4813     2.1731    -0.0149 C.2     
  11 C11            3.6604    -2.0950    -0.0713 C.3     
  12 O12            3.4256     3.3913     0.0014 O.2     
  13 C13            5.9710     2.3159    -0.0418 C.2     
  14 N14            7.1647     1.6963     0.0459 N.am    
  15 O15            5.9198     3.5292    -0.1241 O.2     
  16 N16            3.7769    -2.5643    -1.4584 N.3     
  17 C17            5.0666    -2.1759    -2.0380 C.3     
  18 C18            5.2155    -2.7469    -3.4239 C.ar    
  19 C19            4.4271    -3.7853    -3.8713 C.ar    
  20 C20            3.3645    -4.4043    -2.9997 C.3     
  21 C21            3.6013    -4.0233    -1.5381 C.3     
  22 C22            8.4025     2.4710    -0.0711 C.3     
  23 C23            9.5310     1.5590    -0.5565 C.3     
  24 C24           10.8238     2.3681    -0.6787 C.3     
  25 C25           11.1914     2.9516     0.6871 C.3     
  26 C26           10.0629     3.8636     1.1725 C.3     
  27 C27            8.7701     3.0545     1.2947 C.3     
  28 O28            9.1878     1.0141    -1.8321 O.3     
  29 C29            6.1782    -2.2030    -4.2620 C.ar    
  30 C30            6.3517    -2.6966    -5.5389 C.ar    
  31 C31            5.5616    -3.7405    -5.9872 C.ar    
  32 C32            4.6025    -4.2826    -5.1537 C.ar    
  33 Cl33           5.7752    -4.3671    -7.5920 Cl      
  34 H34           -0.9603     1.9212     0.0291 H       
  35 H35           -0.9228    -0.5622     0.0016 H       
  36 H36            1.2286    -1.7397    -0.0387 H       
  37 H37            1.1154     3.1723     0.0256 H       
  38 H38            5.7397    -0.3869    -0.0738 H       
  39 H39            4.5179    -2.4445     0.5037 H       
  40 H40            2.7436    -2.4869     0.3690 H       
  41 H41            7.2041     0.7373     0.1865 H       
  42 H42            5.1254    -1.0887    -2.0887 H       
  43 H43            5.8722    -2.5501    -1.4063 H       
  44 H44            2.3845    -4.0446    -3.3133 H       
  45 H45            3.3998    -5.4890    -3.1012 H       
  46 H46            4.4989    -4.5208    -1.1708 H       
  47 H47            2.7419    -4.3220    -0.9379 H       
  48 H48            8.2577     3.2815    -0.7854 H       
  49 H49            9.6758     0.7485     0.1578 H       
  50 H50           11.6278     1.7184    -1.0245 H       
  51 H51           10.6790     3.1786    -1.3930 H       
  52 H52           11.3362     2.1410     1.4014 H       
  53 H53           12.1124     3.5280     0.6000 H       
  54 H54           10.3247     4.2792     2.1455 H       
  55 H55            9.9181     4.6741     0.4582 H       
  56 H56            7.9661     3.7042     1.6405 H       
  57 H57            8.9149     2.2439     2.0090 H       
  58 H58            9.8594     0.4247    -2.2017 H       
  59 H59            6.7952    -1.3882    -3.9131 H       
  60 H60            7.1021    -2.2688    -6.1871 H       
  61 H61            3.9860    -5.0977    -5.5028 H       
@<TRIPOS>BOND
   1    1    2 1
   2    1    6 2
   3    1   34 1
   4    2    3 2
   5    2   35 1
   6    3    4 1
   7    3   36 1
   8    4    5 1
   9    4    7 2
  10    5    6 1
  11    5   10 am
  12    6   37 1
  13    7    8 1
  14    7   11 1
  15    8    9 2
  16    8   38 1
  17    9   10 1
  18    9   13 1
  19   10   12 2
  20   11   16 1
  21   11   39 1
  22   11   40 1
  23   13   15 2
  24   13   14 am
  25   14   22 1
  26   14   41 1
  27   16   17 1
  28   16   21 1
  29   17   18 1
  30   17   42 1
  31   17   43 1
  32   18   19 ar
  33   18   29 ar
  34   19   20 1
  35   19   32 ar
  36   20   21 1
  37   20   44 1
  38   20   45 1
  39   21   46 1
  40   21   47 1
  41   22   23 1
  42   22   27 1
  43   22   48 1
  44   23   24 1
  45   23   28 1
  46   23   49 1
  47   24   25 1
  48   24   50 1
  49   24   51 1
  50   25   26 1
  51   25   52 1
  52   25   53 1
  53   26   27 1
  54   26   54 1
  55   26   55 1
  56   27   56 1
  57   27   57 1
  58   28   58 1
  59   29   30 ar
  60   29   59 1
  61   30   31 ar
  62   30   60 1
  63   31   32 ar
  64   31   33 1
  65   32   61 1

#	End of record

