#	Name: ASD01914858
#	Creating user name:	WinNT
#	Creation time:	15. 06. 2019 20:04

#	Modifying user name:	WinNT
#	Modification time:	15. 06. 2019 20:04

#	Program:	/corina/corina34_cracker 3.40 0067  02.08.2006

@<TRIPOS>MOLECULE
ASD01914858
  59   63    0    0    0
SMALL
NO_CHARGES


@<TRIPOS>ATOM
   1 N1             0.0271     1.3906    -0.1032 N.2     
   2 C2            -0.0388     0.0591     0.0783 C.2     
   3 C3             1.2324    -0.4203     0.1480 C.2     
   4 N4             2.0695     0.6502     0.0048 N.pl3   
   5 C5             1.2869     1.7578    -0.1490 C.2     
   6 C6            -1.2808    -0.7457     0.1838 C.ar    
   7 C7            -2.5256    -0.1255     0.0945 C.ar    
   8 C8            -1.2067    -2.1250     0.3670 C.ar    
   9 C9            -2.3650    -2.8695     0.4647 C.ar    
  10 C10           -3.5981    -2.2493     0.3812 C.ar    
  11 C11           -3.6783    -0.8797     0.1935 C.ar    
  12 C12            1.7764     3.1411    -0.3361 C.ar    
  13 C13            3.0847     3.4749     0.0159 C.ar    
  14 C14            3.5351     4.7670    -0.1611 C.ar    
  15 C15            2.6925     5.7307    -0.6857 C.ar    
  16 C16            1.3940     5.4062    -1.0362 C.ar    
  17 C17            0.9335     4.1162    -0.8705 C.ar    
  18 C18            3.5340     0.6156     0.0152 C.3     
  19 C19            4.0320     0.8484     1.4183 C.2     
  20 O20            3.2414     1.0258     2.3208 O.2     
  21 N21            5.3560     0.8595     1.6703 N.am    
  22 C22            5.8633     1.0849     3.0323 C.3     
  23 C23            6.3316     0.6405     0.5917 C.3     
  24 C24            7.3065    -0.4565     1.0326 C.3     
  25 N25            7.8882    -0.0967     2.3326 N.3     
  26 C26            6.8576    -0.0305     3.3722 C.3     
  27 C27            8.8926    -0.9811     2.6855 C.ar    
  28 N28            9.9110    -1.1667     1.8585 N.ar    
  29 N29            8.8156    -1.6181     3.8448 N.ar    
  30 C30            9.7588    -2.4695     4.2124 C.ar    
  31 C31           10.8358    -2.6912     3.3685 C.ar    
  32 C32           10.8874    -2.0045     2.1657 C.ar    
  33 Cl33          -5.2302    -0.1086     0.0898 Cl      
  34 C34           -4.8590    -3.0676     0.4886 C.3     
  35 H35            1.5242    -1.4505     0.2895 H       
  36 H36           -2.5887     0.9427    -0.0515 H       
  37 H37           -0.2444    -2.6110     0.4320 H       
  38 H38           -2.3081    -3.9387     0.6063 H       
  39 H39            3.7432     2.7237     0.4262 H       
  40 H40            4.5475     5.0267     0.1109 H       
  41 H41            3.0497     6.7408    -0.8219 H       
  42 H42            0.7410     6.1632    -1.4450 H       
  43 H43           -0.0802     3.8641    -1.1448 H       
  44 H44            3.8769    -0.3579    -0.3353 H       
  45 H45            3.9205     1.3950    -0.6416 H       
  46 H46            6.3660     2.0508     3.0806 H       
  47 H47            5.0344     1.0646     3.7399 H       
  48 H48            5.8122     0.3264    -0.3136 H       
  49 H49            6.8801     1.5629     0.4013 H       
  50 H50            6.7730    -1.4028     1.1222 H       
  51 H51            8.1014    -0.5553     0.2933 H       
  52 H52            7.3246     0.1798     4.3344 H       
  53 H53            6.3310    -0.9835     3.4235 H       
  54 H54            9.6907    -2.9855     5.1587 H       
  55 H55           11.6198    -3.3809     3.6442 H       
  56 H56           11.7130    -2.1545     1.4857 H       
  57 H57           -5.1640    -3.1296     1.5333 H       
  58 H58           -5.6499    -2.5943    -0.0933 H       
  59 H59           -4.6751    -4.0706     0.1036 H       
@<TRIPOS>BOND
   1    1    2 1
   2    1    5 2
   3    2    3 2
   4    2    6 1
   5    3    4 1
   6    3   35 1
   7    4    5 1
   8    4   18 1
   9    5   12 1
  10    6    7 ar
  11    6    8 ar
  12    7   11 ar
  13    7   36 1
  14    8    9 ar
  15    8   37 1
  16    9   10 ar
  17    9   38 1
  18   10   11 ar
  19   10   34 1
  20   11   33 1
  21   12   13 ar
  22   12   17 ar
  23   13   14 ar
  24   13   39 1
  25   14   15 ar
  26   14   40 1
  27   15   16 ar
  28   15   41 1
  29   16   17 ar
  30   16   42 1
  31   17   43 1
  32   18   19 1
  33   18   44 1
  34   18   45 1
  35   19   20 2
  36   19   21 am
  37   21   22 1
  38   21   23 1
  39   22   26 1
  40   22   46 1
  41   22   47 1
  42   23   24 1
  43   23   48 1
  44   23   49 1
  45   24   25 1
  46   24   50 1
  47   24   51 1
  48   25   26 1
  49   25   27 1
  50   26   52 1
  51   26   53 1
  52   27   28 ar
  53   27   29 ar
  54   28   32 ar
  55   29   30 ar
  56   30   31 ar
  57   30   54 1
  58   31   32 ar
  59   31   55 1
  60   32   56 1
  61   34   57 1
  62   34   58 1
  63   34   59 1

#	End of record

