#	Name: ASD09890067
#	Creating user name:	WinNT
#	Creation time:	15. 06. 2019 21:24

#	Modifying user name:	WinNT
#	Modification time:	15. 06. 2019 21:24

#	Program:	/corina/corina34_cracker 3.40 0067  02.08.2006

@<TRIPOS>MOLECULE
ASD09890067
  41   43    0    0    0
SMALL
NO_CHARGES


@<TRIPOS>ATOM
   1 C1            -0.0165     1.3655     0.0095 C.2     
   2 N2             0.0021    -0.0041     0.0020 N.pl3   
   3 C3            -1.3101    -0.3908     0.0130 C.2     
   4 N4            -2.0331     0.7050     0.0260 N.2     
   5 N5            -1.2657     1.7359     0.0292 N.2     
   6 S6            -1.9150    -2.0457     0.0092 S.3     
   7 C7            -3.6970    -1.7289     0.0291 C.3     
   8 C8             1.1308    -0.8363    -0.0143 C.ar    
   9 C9             1.4007    -1.6634     1.0673 C.ar    
  10 C10            2.5129    -2.4823     1.0481 C.ar    
  11 C11            3.3570    -2.4787    -0.0470 C.ar    
  12 C12            3.0907    -1.6558    -1.1259 C.ar    
  13 C13            1.9772    -0.8387    -1.1146 C.ar    
  14 C14            1.1849     2.2753     0.0030 C.3     
  15 C15           -4.4519    -3.0537    -0.0969 C.3     
  16 C16           -4.0792    -1.0473     1.3445 C.3     
  17 O17            1.5518     2.5701    -1.3463 O.3     
  18 C18            2.6243     3.3844    -1.5303 C.ar    
  19 C19            3.0445     3.7187    -2.8139 C.ar    
  20 C20            4.1427     4.5519    -2.9510 C.ar    
  21 C21            4.7803     5.0203    -1.8172 C.ar    
  22 N22            4.3565     4.6843    -0.6147 N.ar    
  23 C23            3.3121     3.8987    -0.4410 C.ar    
  24 H24           -3.9600    -1.0800    -0.8062 H       
  25 H25            0.7419    -1.6664     1.9231 H       
  26 H26            2.7236    -3.1258     1.8895 H       
  27 H27            4.2262    -3.1196    -0.0596 H       
  28 H28            3.7518    -1.6551    -1.9799 H       
  29 H29            1.7695    -0.1964    -1.9577 H       
  30 H30            0.9423     3.2014     0.5241 H       
  31 H31            2.0167     1.7823     0.5062 H       
  32 H32           -4.1889    -3.7027     0.7385 H       
  33 H33           -5.5250    -2.8630    -0.0849 H       
  34 H34           -4.1797    -3.5394    -1.0340 H       
  35 H35           -3.8161    -1.6962     2.1798 H       
  36 H36           -3.5413    -0.1035     1.4342 H       
  37 H37           -5.1523    -0.8565     1.3565 H       
  38 H38            2.5273     3.3377    -3.6821 H       
  39 H39            4.4969     4.8320    -3.9320 H       
  40 H40            5.6372     5.6699    -1.9178 H       
  41 H41            2.9944     3.6453     0.5596 H       
@<TRIPOS>BOND
   1    1    2 1
   2    1   14 1
   3    1    5 2
   4    2    3 1
   5    2    8 1
   6    3    4 2
   7    3    6 1
   8    4    5 1
   9    6    7 1
  10    7   15 1
  11    7   16 1
  12    7   24 1
  13    8    9 ar
  14    8   13 ar
  15    9   10 ar
  16    9   25 1
  17   10   11 ar
  18   10   26 1
  19   11   12 ar
  20   11   27 1
  21   12   13 ar
  22   12   28 1
  23   13   29 1
  24   14   17 1
  25   14   30 1
  26   14   31 1
  27   15   32 1
  28   15   33 1
  29   15   34 1
  30   16   35 1
  31   16   36 1
  32   16   37 1
  33   17   18 1
  34   18   19 ar
  35   18   23 ar
  36   19   20 ar
  37   19   38 1
  38   20   21 ar
  39   20   39 1
  40   21   22 ar
  41   21   40 1
  42   22   23 ar
  43   23   41 1

#	End of record

