#	Name: ASD01870533
#	Creating user name:	WinNT
#	Creation time:	15. 06. 2019 19:39

#	Modifying user name:	WinNT
#	Modification time:	15. 06. 2019 19:39

#	Program:	/corina/corina34_cracker 3.40 0067  02.08.2006

@<TRIPOS>MOLECULE
ASD01870533
  51   54    0    0    0
SMALL
NO_CHARGES


@<TRIPOS>ATOM
   1 C1            -0.0171     1.4125     0.0098 C.ar    
   2 C2             0.0021    -0.0041     0.0020 C.ar    
   3 N3             1.1789    -0.6144    -0.0124 N.ar    
   4 C4             2.3124     0.0698    -0.0195 C.ar    
   5 N5             2.3552     1.3803    -0.0129 N.ar    
   6 C6             1.2216     2.0987     0.0017 C.ar    
   7 C7             1.2346     3.5004     0.0085 C.ar    
   8 C8             0.0597     4.1886     0.0229 C.ar    
   9 C9            -1.1671     3.5174     0.0316 C.ar    
  10 C10           -1.2130     2.1381     0.0194 C.ar    
  11 N11           -1.1716    -0.7285     0.0097 N.pl3   
  12 N12           -2.3572     4.2498     0.0469 N.pl3   
  13 C13           -1.1287    -2.1929     0.0014 C.3     
  14 C14           -2.6907    -4.0427     0.1871 C.ar    
  15 C15           -1.9574    -4.0279     1.3587 C.ar    
  16 C16           -1.1494    -2.7505     1.4405 C.3     
  17 C17           -2.4254    -2.7764    -0.5986 C.3     
  18 C18           -3.5944    -6.1834     0.7798 C.ar    
  19 C19           -2.8603    -6.1690     1.9512 C.ar    
  20 C20           -2.0442    -5.0929     2.2398 C.ar    
  21 C21           -3.5089    -5.1226    -0.1003 C.ar    
  22 C22           -2.3160     5.7142     0.0538 C.3     
  23 C23           -3.7435     6.2645     0.0705 C.3     
  24 O24           -4.3808     5.8984     1.2960 O.3     
  25 C25           -5.7261     6.3658     1.4138 C.3     
  26 C26           -6.3058     5.9181     2.7571 C.3     
  27 O27           -5.5909     6.5522     3.8195 O.3     
  28 H28            3.2441    -0.4763    -0.0309 H       
  29 H29            2.1740     4.0331     0.0027 H       
  30 H30            0.0756     5.2685     0.0281 H       
  31 H31           -2.1628     1.6240     0.0220 H       
  32 H32           -2.0255    -0.2684     0.0206 H       
  33 H33           -3.2105     3.7886     0.0529 H       
  34 H34           -0.2547    -2.5501    -0.5432 H       
  35 H35           -0.1353    -2.9654     1.7775 H       
  36 H36           -1.6303    -2.0412     2.1141 H       
  37 H37           -3.2496    -2.0741    -0.4735 H       
  38 H38           -2.2826    -3.0091    -1.6539 H       
  39 H39           -4.2331    -7.0241     0.5525 H       
  40 H40           -2.9261    -6.9977     2.6406 H       
  41 H41           -1.4715    -5.0820     3.1554 H       
  42 H42           -4.0822    -5.1349    -1.0155 H       
  43 H43           -1.7835     6.0585     0.9403 H       
  44 H44           -1.8009     6.0674    -0.8395 H       
  45 H45           -3.7152     7.3509    -0.0139 H       
  46 H46           -4.3028     5.8494    -0.7680 H       
  47 H47           -5.7389     7.4542     1.3572 H       
  48 H48           -6.3265     5.9528     0.6032 H       
  49 H49           -7.3581     6.1972     2.8098 H       
  50 H50           -6.2117     4.8362     2.8509 H       
  51 H51           -5.9054     6.3140     4.7023 H       
@<TRIPOS>BOND
   1    1    2 ar
   2    1    6 ar
   3    1   10 ar
   4    2    3 ar
   5    2   11 1
   6    3    4 ar
   7    4    5 ar
   8    4   28 1
   9    5    6 ar
  10    6    7 ar
  11    7    8 ar
  12    7   29 1
  13    8    9 ar
  14    8   30 1
  15    9   10 ar
  16    9   12 1
  17   10   31 1
  18   11   13 1
  19   11   32 1
  20   12   22 1
  21   12   33 1
  22   13   17 1
  23   13   16 1
  24   13   34 1
  25   14   17 1
  26   14   21 ar
  27   14   15 ar
  28   15   16 1
  29   15   20 ar
  30   16   35 1
  31   16   36 1
  32   17   37 1
  33   17   38 1
  34   18   19 ar
  35   18   21 ar
  36   18   39 1
  37   19   20 ar
  38   19   40 1
  39   20   41 1
  40   21   42 1
  41   22   23 1
  42   22   43 1
  43   22   44 1
  44   23   24 1
  45   23   45 1
  46   23   46 1
  47   24   25 1
  48   25   26 1
  49   25   47 1
  50   25   48 1
  51   26   27 1
  52   26   49 1
  53   26   50 1
  54   27   51 1

#	End of record

