#	Name: ASD03730119
#	Creating user name:	WinNT
#	Creation time:	15. 06. 2019 20:44

#	Modifying user name:	WinNT
#	Modification time:	15. 06. 2019 20:44

#	Program:	/corina/corina34_cracker 3.40 0067  02.08.2006

@<TRIPOS>MOLECULE
ASD03730119
  50   55    0    0    0
SMALL
NO_CHARGES


@<TRIPOS>ATOM
   1 C1            -0.0185     1.5024     0.0146 C.2     
   2 C2             0.0015    -0.0044     0.0111 C.3     
   3 O3             1.0237     2.1228     0.0078 O.2     
   4 N4            -1.1946     2.1607     0.0195 N.am    
   5 O5             6.2423     2.8840     2.1089 O.3     
   6 C6             7.6623     2.8282     2.3400 C.3     
   7 O7             7.8736     1.4999     2.8536 O.3     
   8 C8             6.8633     0.7419     2.3344 C.ar    
   9 C9             5.8600     1.5936     1.8776 C.ar    
  10 C10            6.7165    -0.6281     2.2118 C.ar    
  11 C11            5.5697    -1.1655     1.6351 C.ar    
  12 C12            4.5708    -0.3050     1.1900 C.ar    
  13 C13            4.7168     1.0617     1.3053 C.ar    
  14 O14            5.2375    -2.4684     1.4061 O.3     
  15 C15            3.4653    -1.1732     0.6514 C.3     
  16 C16            3.8161    -2.5659     1.1926 C.3     
  17 N17            1.3890    -0.4743    -0.0006 N.am    
  18 C18            2.1102    -0.7186     1.1117 C.2     
  19 C19            3.4033    -1.1545    -0.8471 C.ar    
  20 C20            4.3065    -1.4602    -1.8406 C.ar    
  21 C21            3.9415    -1.3405    -3.1697 C.ar    
  22 C22            2.6680    -0.9127    -3.4979 C.ar    
  23 C23            1.7600    -0.6043    -2.5065 C.ar    
  24 C24            2.1186    -0.7223    -1.1659 C.ar    
  25 O25            1.7375    -0.5957     2.2593 O.2     
  26 C26           -1.2153     3.5555     0.1328 C.ar    
  27 C27           -0.2690     4.2016     0.9130 C.ar    
  28 C28           -0.2940     5.5921     1.0227 C.ar    
  29 C29           -1.2724     6.3236     0.3455 C.ar    
  30 C30           -2.2096     5.6706    -0.4283 C.ar    
  31 C31           -2.1810     4.2930    -0.5413 C.ar    
  32 C32            0.6797     6.2670     1.8270 C.1     
  33 N33            1.4522     6.8025     2.4651 N.1     
  34 H34           -0.5006    -0.3765     0.9042 H       
  35 H35           -0.5143    -0.3726    -0.8757 H       
  36 H36           -2.0266     1.6678    -0.0555 H       
  37 H37            8.2080     2.9694     1.4070 H       
  38 H38            7.9602     3.5752     3.0758 H       
  39 H39            7.4972    -1.2850     2.5659 H       
  40 H40            3.9373     1.7186     0.9486 H       
  41 H41            3.5871    -3.3363     0.4564 H       
  42 H42            3.2960    -2.7588     2.1310 H       
  43 H43            5.3006    -1.7940    -1.5820 H       
  44 H44            4.6494    -1.5811    -3.9492 H       
  45 H45            2.3831    -0.8191    -4.5355 H       
  46 H46            0.7675    -0.2703    -2.7707 H       
  47 H47            0.4848     3.6304     1.4344 H       
  48 H48           -1.2956     7.4002     0.4280 H       
  49 H49           -2.9656     6.2379    -0.9509 H       
  50 H50           -2.9144     3.7879    -1.1525 H       
@<TRIPOS>BOND
   1    1    2 1
   2    1    3 2
   3    1    4 am
   4    2   17 1
   5    2   34 1
   6    2   35 1
   7    4   26 1
   8    4   36 1
   9    5    6 1
  10    5    9 1
  11    6    7 1
  12    6   37 1
  13    6   38 1
  14    7    8 1
  15    8    9 ar
  16    8   10 ar
  17    9   13 ar
  18   10   11 ar
  19   10   39 1
  20   11   12 ar
  21   11   14 1
  22   12   13 ar
  23   12   15 1
  24   13   40 1
  25   14   16 1
  26   15   16 1
  27   15   18 1
  28   15   19 1
  29   16   41 1
  30   16   42 1
  31   17   18 am
  32   17   24 1
  33   18   25 2
  34   19   20 ar
  35   19   24 ar
  36   20   21 ar
  37   20   43 1
  38   21   22 ar
  39   21   44 1
  40   22   23 ar
  41   22   45 1
  42   23   24 ar
  43   23   46 1
  44   26   27 ar
  45   26   31 ar
  46   27   28 ar
  47   27   47 1
  48   28   29 ar
  49   28   32 1
  50   29   30 ar
  51   29   48 1
  52   30   31 ar
  53   30   49 1
  54   31   50 1
  55   32   33 3

#	End of record

