#	Name: ASD09200036
#	Creating user name:	WinNT
#	Creation time:	15. 06. 2019 21:21

#	Modifying user name:	WinNT
#	Modification time:	15. 06. 2019 21:21

#	Program:	/corina/corina34_cracker 3.40 0067  02.08.2006

@<TRIPOS>MOLECULE
ASD09200036
  53   56    0    0    0
SMALL
NO_CHARGES


@<TRIPOS>ATOM
   1 N1            -0.0160     1.3311     0.0094 N.am    
   2 C2             0.0021    -0.0041     0.0020 C.2     
   3 S3             1.2789    -0.9039    -0.0145 S.o     
   4 C4             0.4636    -2.4790    -0.0155 C.2     
   5 C5            -0.8424    -2.1586    -0.0019 C.2     
   6 N6            -1.0591    -0.7960     0.0132 N.am    
   7 C7            -1.9275    -3.1574     0.0027 C.ar    
   8 C8            -1.6205    -4.5251    -0.0070 C.ar    
   9 C9            -2.6224    -5.4490    -0.0028 C.ar    
  10 C10           -3.9623    -5.0305     0.0116 C.ar    
  11 C11           -4.2686    -3.6605     0.0217 C.ar    
  12 C12           -3.2650    -2.7384     0.0224 C.ar    
  13 C13            1.2379     2.0968     0.0015 C.3     
  14 C14            1.1994     3.0940    -1.1607 C.3     
  15 C15           -0.0615     3.9540    -1.0482 C.3     
  16 C16           -1.3005     3.0600    -1.1376 C.3     
  17 C17           -1.2903     2.0624     0.0193 C.3     
  18 C18           -0.0591     4.6891     0.2937 C.3     
  19 N19           -0.0850     4.9337    -2.1425 N.3     
  20 C20           -5.0451    -6.0272     0.0157 C.ar    
  21 C21           -6.3868    -5.6057     0.0301 C.ar    
  22 C22           -7.3889    -6.5238     0.0343 C.ar    
  23 C23           -7.0818    -7.9020     0.0237 C.ar    
  24 C24           -5.7338    -8.3220     0.0088 C.ar    
  25 C25           -4.7361    -7.3991    -0.0007 C.ar    
  26 C26           -8.1217    -8.8592     0.0285 C.2     
  27 N27           -7.8343   -10.1420     0.0187 N.2     
  28 H28            1.7145    -0.7879    -1.2817 H       
  29 H29            0.9102    -3.4623    -0.0254 H       
  30 H30           -1.9577    -0.4309     0.0243 H       
  31 H31           -0.5896    -4.8468    -0.0180 H       
  32 H32           -2.3856    -6.5027    -0.0109 H       
  33 H33           -5.2991    -3.3374     0.0324 H       
  34 H34           -3.5004    -1.6844     0.0305 H       
  35 H35            1.3424     2.6365     0.9427 H       
  36 H36            2.0802     1.4172    -0.1279 H       
  37 H37            2.0809     3.7339    -1.1205 H       
  38 H38            1.1862     2.5510    -2.1058 H       
  39 H39           -2.1982     3.6756    -1.0808 H       
  40 H40           -1.2901     2.5173    -2.0828 H       
  41 H41           -2.1165     1.3609    -0.0959 H       
  42 H42           -1.3912     2.5971     0.9638 H       
  43 H43            0.8226     5.3268     0.3570 H       
  44 H44           -0.9571     5.3016     0.3740 H       
  45 H45           -0.0411     3.9624     1.1060 H       
  46 H46           -0.9086     5.5143    -2.0905 H       
  47 H47            0.7535     5.4949    -2.1435 H       
  48 H48           -6.6211    -4.5515     0.0382 H       
  49 H49           -8.4190    -6.1996     0.0461 H       
  50 H50           -5.4959    -9.3754     0.0010 H       
  51 H51           -3.7049    -7.7197    -0.0121 H       
  52 H52           -9.1524    -8.5368     0.0403 H       
  53 H53           -8.5480   -10.7990     0.0220 H       
@<TRIPOS>BOND
   1    1    2 am
   2    1   13 1
   3    1   17 1
   4    2    3 2
   5    2    6 am
   6    3    4 1
   7    3   28 1
   8    4    5 2
   9    4   29 1
  10    5    6 1
  11    5    7 1
  12    6   30 1
  13    7    8 ar
  14    7   12 ar
  15    8    9 ar
  16    8   31 1
  17    9   10 ar
  18    9   32 1
  19   10   11 ar
  20   10   20 1
  21   11   12 ar
  22   11   33 1
  23   12   34 1
  24   13   14 1
  25   13   35 1
  26   13   36 1
  27   14   15 1
  28   14   37 1
  29   14   38 1
  30   15   16 1
  31   15   18 1
  32   15   19 1
  33   16   17 1
  34   16   39 1
  35   16   40 1
  36   17   41 1
  37   17   42 1
  38   18   43 1
  39   18   44 1
  40   18   45 1
  41   19   46 1
  42   19   47 1
  43   20   21 ar
  44   20   25 ar
  45   21   22 ar
  46   21   48 1
  47   22   23 ar
  48   22   49 1
  49   23   24 ar
  50   23   26 1
  51   24   25 ar
  52   24   50 1
  53   25   51 1
  54   26   27 2
  55   26   52 1
  56   27   53 1

#	End of record

