#	Name: ASD04882537
#	Creating user name:	WinNT
#	Creation time:	15. 06. 2019 20:55

#	Modifying user name:	WinNT
#	Modification time:	15. 06. 2019 20:55

#	Program:	/corina/corina34_cracker 3.40 0067  02.08.2006

@<TRIPOS>MOLECULE
ASD04882537
  80   85    0    0    0
SMALL
NO_CHARGES


@<TRIPOS>ATOM
   1 C1            -0.1994     1.4129     0.0151 C.ar    
   2 C2            -0.1650     0.0157     0.0120 C.ar    
   3 C3            -1.3500    -0.7107    -0.0137 C.ar    
   4 C4            -2.5618    -0.0567    -0.0359 C.ar    
   5 C5            -2.6035     1.3404    -0.0325 C.ar    
   6 C6            -1.4136     2.0731    -0.0018 C.ar    
   7 N7             1.0581    -0.6497     0.0344 N.3     
   8 C8             1.1695    -1.5071     1.2227 C.3     
   9 C9             1.2555    -1.4302    -1.1950 C.3     
  10 C10            2.6408    -2.0803    -1.1664 C.3     
  11 N11            2.7523    -2.9377     0.0219 N.3     
  12 C12            2.5548    -2.1572     1.2513 C.3     
  13 C13           -3.9018     2.0407    -0.0568 C.2     
  14 O14           -3.9371     3.2561    -0.0539 O.2     
  15 N15           -5.0487     1.3332    -0.0822 N.am    
  16 N16            0.9956     2.1436     0.0411 N.am    
  17 C17            3.9667    -3.5984     0.0441 C.ar    
  18 C18            1.0121     3.3903     0.5528 C.2     
  19 C19            2.2788     4.1222     0.6606 C.2     
  20 C20            3.9982    -4.9995     0.1457 C.ar    
  21 C21            5.2396    -5.6460     0.1663 C.ar    
  22 C22            6.3844    -4.8735     0.0853 C.ar    
  23 C23            6.2727    -3.4978    -0.0128 C.ar    
  24 N24            5.0938    -2.9078    -0.0361 N.ar    
  25 O25           -0.0239     3.9089     0.9256 O.2     
  26 O26            2.4504     5.3724     1.1500 O.3     
  27 C27            3.7525     5.6641     1.0713 C.2     
  28 N28            4.3891     4.6474     0.5546 N.2     
  29 C29            3.5124     3.6726     0.2925 C.2     
  30 C30           -6.3379     2.0287    -0.1064 C.3     
  31 C31           -7.4712     1.0011    -0.1325 C.3     
  32 N32           -9.9028     0.7435    -0.1827 N.am    
  33 C33           -8.8176     1.7274    -0.1577 C.3     
  34 C34            4.3853     6.9599     1.5090 C.3     
  35 C35            5.4549     6.8904     2.6008 C.3     
  36 C36            5.8567     7.1830     1.1538 C.3     
  37 C37          -10.5408     0.1838     1.0146 C.3     
  38 C38          -10.4459     0.2418    -1.3052 C.2     
  39 C39          -11.5315    -0.7530    -0.9583 C.3     
  40 C40          -11.2817    -1.0832     0.5327 C.3     
  41 O41          -10.1143     0.5433    -2.4322 O.2     
  42 C42            2.7469    -5.7745     0.2297 C.2     
  43 N43            2.7913    -7.1065     0.4301 N.am    
  44 O44            1.6747    -5.2118     0.1182 O.2     
  45 H45           -1.3203    -1.7903    -0.0167 H       
  46 H46           -3.4807    -0.6239    -0.0562 H       
  47 H47           -1.4428     3.1527     0.0012 H       
  48 H48            1.0322    -0.9042     2.1203 H       
  49 H49            0.4046    -2.2827     1.1846 H       
  50 H50            0.4916    -2.2049    -1.2606 H       
  51 H51            1.1809    -0.7712    -2.0601 H       
  52 H52            2.7782    -2.6832    -2.0641 H       
  53 H53            3.4058    -1.3048    -1.1283 H       
  54 H54            3.3188    -1.3825     1.3169 H       
  55 H55            2.6294    -2.8162     2.1163 H       
  56 H56           -5.0205     0.3637    -0.0846 H       
  57 H57            1.8111     1.7523    -0.3093 H       
  58 H58            5.3022    -6.7214     0.2439 H       
  59 H59            7.3580    -5.3407     0.0989 H       
  60 H60            7.1676    -2.8965    -0.0756 H       
  61 H61            3.7388     2.7082    -0.1377 H       
  62 H62           -6.4319     2.6507     0.7838 H       
  63 H63           -6.3957     2.6561    -0.9958 H       
  64 H64           -7.3772     0.3791    -1.0226 H       
  65 H65           -7.4134     0.3737     0.7570 H       
  66 H66           -8.9116     2.3495     0.7325 H       
  67 H67           -8.8754     2.3548    -1.0471 H       
  68 H68            3.7283     7.8296     1.5028 H       
  69 H69            5.5018     7.7145     3.3126 H       
  70 H70            5.7009     5.9074     3.0025 H       
  71 H71            6.3670     6.3925     0.6035 H       
  72 H72            6.1679     8.1996     0.9137 H       
  73 H73           -9.7863    -0.0795     1.7559 H       
  74 H74          -11.2491     0.8985     1.4337 H       
  75 H75          -12.5161    -0.3035    -1.0870 H       
  76 H76          -11.4374    -1.6495    -1.5711 H       
  77 H77          -10.6519    -1.9668     0.6363 H       
  78 H78          -12.2231    -1.2122     1.0667 H       
  79 H79            3.6466    -7.5553     0.5191 H       
  80 H80            1.9680    -7.6164     0.4853 H       
@<TRIPOS>BOND
   1    1    2 ar
   2    1   16 1
   3    1    6 ar
   4    2    3 ar
   5    2    7 1
   6    3    4 ar
   7    3   45 1
   8    4    5 ar
   9    4   46 1
  10    5    6 ar
  11    5   13 1
  12    6   47 1
  13    7    8 1
  14    7    9 1
  15    8   12 1
  16    8   48 1
  17    8   49 1
  18    9   10 1
  19    9   50 1
  20    9   51 1
  21   10   11 1
  22   10   52 1
  23   10   53 1
  24   11   12 1
  25   11   17 1
  26   12   54 1
  27   12   55 1
  28   13   14 2
  29   13   15 am
  30   15   30 1
  31   15   56 1
  32   16   18 am
  33   16   57 1
  34   17   20 ar
  35   17   24 ar
  36   18   19 1
  37   18   25 2
  38   19   26 1
  39   19   29 2
  40   20   21 ar
  41   20   42 1
  42   21   22 ar
  43   21   58 1
  44   22   23 ar
  45   22   59 1
  46   23   24 ar
  47   23   60 1
  48   26   27 1
  49   27   28 2
  50   27   34 1
  51   28   29 1
  52   29   61 1
  53   30   31 1
  54   30   62 1
  55   30   63 1
  56   31   33 1
  57   31   64 1
  58   31   65 1
  59   32   33 1
  60   32   37 1
  61   32   38 am
  62   33   66 1
  63   33   67 1
  64   34   35 1
  65   34   36 1
  66   34   68 1
  67   35   36 1
  68   35   69 1
  69   35   70 1
  70   36   71 1
  71   36   72 1
  72   37   40 1
  73   37   73 1
  74   37   74 1
  75   38   39 1
  76   38   41 2
  77   39   40 1
  78   39   75 1
  79   39   76 1
  80   40   77 1
  81   40   78 1
  82   42   43 am
  83   42   44 2
  84   43   79 1
  85   43   80 1

#	End of record

