#	Name: ASD01910616
#	Creating user name:	WinNT
#	Creation time:	15. 06. 2019 19:56

#	Modifying user name:	WinNT
#	Modification time:	15. 06. 2019 19:56

#	Program:	/corina/corina34_cracker 3.40 0067  02.08.2006

@<TRIPOS>MOLECULE
ASD01910616
  47   50    0    0    0
SMALL
NO_CHARGES


@<TRIPOS>ATOM
   1 C1             0.0245     1.3012    -0.0724 C.ar    
   2 C2             0.0574    -0.0820    -0.0819 C.ar    
   3 C3             1.2683    -0.7513    -0.0864 C.ar    
   4 C4             2.4518    -0.0424    -0.0814 C.ar    
   5 C5             2.4257     1.3531    -0.0722 C.ar    
   6 C6             1.2007     2.0221    -0.0676 C.ar    
   7 C7             3.6899     2.1192    -0.0662 C.2     
   8 N8             3.8156     3.4343    -0.0575 N.2     
   9 C9             5.1370     3.6694    -0.0545 C.2     
  10 N10            5.7416     2.5181    -0.0614 N.2     
  11 O11            4.9331     1.6141    -0.0628 O.3     
  12 C12            5.8000     5.0226    -0.0457 C.3     
  13 C13            6.6710     5.1565     1.2055 C.3     
  14 C14            7.3189     6.5428     1.2322 C.3     
  15 C15            8.2141     6.7074    -0.0000 C.3     
  16 N16            7.4162     6.4373    -1.2038 N.am    
  17 C17            6.6780     5.1700    -1.2923 C.3     
  18 C18            7.3623     7.3349    -2.2076 C.2     
  19 C19            8.0329     8.6435    -2.0652 C.ar    
  20 O20            6.7619     7.0678    -3.2304 O.2     
  21 C21            9.3918     8.7037    -1.7498 C.ar    
  22 C22           10.0128     9.9275    -1.6185 C.ar    
  23 C23            9.2904    11.0970    -1.7985 C.ar    
  24 C24            7.9405    11.0429    -2.1114 C.ar    
  25 C25            7.3113     9.8247    -2.2511 C.ar    
  26 F26            9.9037    12.2937    -1.6682 F       
  27 C27            5.8444     9.7675    -2.5916 C.3     
  28 H28           -0.9240     1.8176    -0.0731 H       
  29 H29           -0.8662    -0.6417    -0.0856 H       
  30 H30            1.2871    -1.8311    -0.0935 H       
  31 H31            3.3964    -0.5660    -0.0842 H       
  32 H32            1.1737     3.1018    -0.0609 H       
  33 H33            5.0373     5.8014    -0.0431 H       
  34 H34            6.0527     5.0275     2.0939 H       
  35 H35            7.4483     4.3926     1.1903 H       
  36 H36            6.5423     7.3076     1.2224 H       
  37 H37            7.9204     6.6459     2.1353 H       
  38 H38            8.5996     7.7262    -0.0381 H       
  39 H39            9.0437     6.0024     0.0543 H       
  40 H40            7.3823     4.3397    -1.3435 H       
  41 H41            6.0499     5.1745    -2.1832 H       
  42 H42            9.9553     7.7932    -1.6086 H       
  43 H43           11.0638     9.9752    -1.3745 H       
  44 H44            7.3822    11.9570    -2.2499 H       
  45 H45            5.7192     9.8365    -3.6722 H       
  46 H46            5.4255     8.8258    -2.2367 H       
  47 H47            5.3274    10.5987    -2.1122 H       
@<TRIPOS>BOND
   1    1    2 ar
   2    1    6 ar
   3    1   28 1
   4    2    3 ar
   5    2   29 1
   6    3    4 ar
   7    3   30 1
   8    4    5 ar
   9    4   31 1
  10    5    6 ar
  11    5    7 1
  12    6   32 1
  13    7    8 2
  14    7   11 1
  15    8    9 1
  16    9   10 2
  17    9   12 1
  18   10   11 1
  19   12   13 1
  20   12   17 1
  21   12   33 1
  22   13   14 1
  23   13   34 1
  24   13   35 1
  25   14   15 1
  26   14   36 1
  27   14   37 1
  28   15   16 1
  29   15   38 1
  30   15   39 1
  31   16   17 1
  32   16   18 am
  33   17   40 1
  34   17   41 1
  35   18   19 1
  36   18   20 2
  37   19   21 ar
  38   19   25 ar
  39   21   22 ar
  40   21   42 1
  41   22   23 ar
  42   22   43 1
  43   23   24 ar
  44   23   26 1
  45   24   25 ar
  46   24   44 1
  47   25   27 1
  48   27   45 1
  49   27   46 1
  50   27   47 1

#	End of record

