#	Name: ASD08150070
#	Creating user name:	WinNT
#	Creation time:	15. 06. 2019 21:15

#	Modifying user name:	WinNT
#	Modification time:	15. 06. 2019 21:15

#	Program:	/corina/corina34_cracker 3.40 0067  02.08.2006

@<TRIPOS>MOLECULE
ASD08150070
  59   61    0    0    0
SMALL
NO_CHARGES


@<TRIPOS>ATOM
   1 O1             0.7944     2.3354    -1.9603 O.3     
   2 C2             1.1283     1.2794    -2.7105 C.2     
   3 N3             2.4425     1.1807    -2.9531 N.am    
   4 C4             3.1331     2.3018    -2.2973 C.3     
   5 C5             1.9945     3.0879    -1.6191 C.3     
   6 O6             0.3144     0.4820    -3.1328 O.2     
   7 C7             3.8457     3.1738    -3.3330 C.3     
   8 C8             1.9147     4.5086    -2.1814 C.3     
   9 C9             0.7950     5.2748    -1.4742 C.3     
  10 C10            0.7958     6.7302    -1.9463 C.3     
  11 O11           -0.4636     4.6739    -1.7853 O.3     
  12 Si12          -1.6095     4.9077    -0.6484 Si      
  13 C13           -3.0962     3.8448    -1.0349 C.ar    
  14 C14           -3.6925     3.1002    -0.0344 C.ar    
  15 C15           -4.7926     2.3137    -0.3205 C.ar    
  16 C16           -5.2968     2.2721    -1.6069 C.ar    
  17 C17           -4.7012     3.0174    -2.6072 C.ar    
  18 C18           -3.6036     3.8073    -2.3202 C.ar    
  19 C19           -0.9287     4.4403     1.0272 C.ar    
  20 C20           -1.1788     3.1850     1.5492 C.ar    
  21 C21           -0.6750     2.8392     2.7892 C.ar    
  22 C22            0.0793     3.7485     3.5069 C.ar    
  23 C23            0.3302     5.0035     2.9844 C.ar    
  24 C24           -0.1700     5.3478     1.7426 C.ar    
  25 C25           -2.1145     6.7009    -0.6353 C.3     
  26 C26           -2.0811     7.2506    -2.0628 C.3     
  27 C27           -3.5319     6.8274    -0.0732 C.3     
  28 C28           -1.1455     7.4973     0.2408 C.3     
  29 H29            2.8689     0.4838    -3.4759 H       
  30 H30            3.8400     1.9337    -1.5537 H       
  31 H31            2.1368     3.1110    -0.5387 H       
  32 H32            3.1188     3.5511    -4.0522 H       
  33 H33            4.3291     4.0121    -2.8312 H       
  34 H34            4.5969     2.5796    -3.8532 H       
  35 H35            2.8639     5.0184    -2.0168 H       
  36 H36            1.7062     4.4651    -3.2504 H       
  37 H37            0.9567     5.2423    -0.3968 H       
  38 H38            0.7463     6.7591    -3.0348 H       
  39 H39           -0.0681     7.2479    -1.5294 H       
  40 H40            1.7098     7.2204    -1.6111 H       
  41 H41           -3.2985     3.1327     0.9706 H       
  42 H42           -5.2580     1.7314     0.4610 H       
  43 H43           -6.1560     1.6570    -1.8306 H       
  44 H44           -5.0949     2.9846    -3.6124 H       
  45 H45           -3.1405     4.3925    -3.1009 H       
  46 H46           -1.7681     2.4746     0.9885 H       
  47 H47           -0.8711     1.8587     3.1974 H       
  48 H48            0.4723     3.4785     4.4759 H       
  49 H49            0.9192     5.7140     3.5453 H       
  50 H50            0.0292     6.3270     1.3328 H       
  51 H51           -2.8438     6.7530    -2.6617 H       
  52 H52           -2.2762     8.3228    -2.0439 H       
  53 H53           -1.0994     7.0676    -2.4996 H       
  54 H54           -3.5557     6.4358     0.9438 H       
  55 H55           -3.8274     7.8766    -0.0655 H       
  56 H56           -4.2223     6.2600    -0.6973 H       
  57 H57           -0.1204     7.2714    -0.0532 H       
  58 H58           -1.3333     8.5635     0.1138 H       
  59 H59           -1.2922     7.2244     1.2858 H       
@<TRIPOS>BOND
   1    1    2 1
   2    1    5 1
   3    2    3 am
   4    2    6 2
   5    3    4 1
   6    3   29 1
   7    4    5 1
   8    4    7 1
   9    4   30 1
  10    5    8 1
  11    5   31 1
  12    7   32 1
  13    7   33 1
  14    7   34 1
  15    8    9 1
  16    8   35 1
  17    8   36 1
  18    9   10 1
  19    9   11 1
  20    9   37 1
  21   10   38 1
  22   10   39 1
  23   10   40 1
  24   11   12 1
  25   12   13 1
  26   12   19 1
  27   12   25 1
  28   13   14 ar
  29   13   18 ar
  30   14   15 ar
  31   14   41 1
  32   15   16 ar
  33   15   42 1
  34   16   17 ar
  35   16   43 1
  36   17   18 ar
  37   17   44 1
  38   18   45 1
  39   19   20 ar
  40   19   24 ar
  41   20   21 ar
  42   20   46 1
  43   21   22 ar
  44   21   47 1
  45   22   23 ar
  46   22   48 1
  47   23   24 ar
  48   23   49 1
  49   24   50 1
  50   25   26 1
  51   25   28 1
  52   25   27 1
  53   26   51 1
  54   26   52 1
  55   26   53 1
  56   27   54 1
  57   27   55 1
  58   27   56 1
  59   28   57 1
  60   28   58 1
  61   28   59 1

#	End of record

