#	Name: ASD01912082
#	Creating user name:	WinNT
#	Creation time:	15. 06. 2019 19:59

#	Modifying user name:	WinNT
#	Modification time:	15. 06. 2019 19:59

#	Program:	/corina/corina34_cracker 3.40 0067  02.08.2006

@<TRIPOS>MOLECULE
ASD01912082
  57   61    0    0    0
SMALL
NO_CHARGES


@<TRIPOS>ATOM
   1 N1            -0.0189     1.6110    -0.3157 N.am    
   2 C2            -0.1498     0.1506    -0.4142 C.3     
   3 C3            -0.9798    -0.3484     0.7751 C.3     
   4 N4            -2.1987     0.4669     0.8721 N.am    
   5 C5            -2.0678     1.9274     0.9706 C.3     
   6 C6            -1.2376     2.4260    -0.2130 C.3     
   7 C7            -0.8596     3.8923     0.0063 C.3     
   8 C8            -2.0485     2.2886    -1.5032 C.3     
   9 C9             1.1971     2.1922    -0.3139 C.2     
  10 C10            2.4168     1.3557    -0.2706 C.2     
  11 O11            1.2918     3.4035    -0.3478 O.2     
  12 N12            2.4758     0.0180    -0.3626 N.2     
  13 N13            3.7188    -0.3166    -0.2809 N.2     
  14 N14            4.4309     0.7468    -0.1431 N.pl3   
  15 N15            3.6604     1.7797    -0.1397 N.2     
  16 C16            5.8273     0.7769    -0.0219 C.ar    
  17 C17            6.5534    -0.4063    -0.0464 C.ar    
  18 C18            6.4874     1.9905     0.1171 C.ar    
  19 C19            7.8632     2.0170     0.2358 C.ar    
  20 C20            8.5832     0.8366     0.2159 C.ar    
  21 C21            7.9290    -0.3733     0.0728 C.ar    
  22 C22           -3.4147    -0.1142     0.8703 C.2     
  23 C23           -3.5299    -1.5912     0.8407 C.ar    
  24 O24           -4.4166     0.5730     0.8930 O.2     
  25 N25           -2.4739    -2.3395     1.1342 N.ar    
  26 C26           -2.5339    -3.6533     1.1200 C.ar    
  27 C27           -3.7108    -4.3085     0.7953 C.ar    
  28 C28           -4.8382    -3.5651     0.4822 C.ar    
  29 C29           -4.7473    -2.1825     0.5107 C.ar    
  30 C30           -1.3056    -4.4571     1.4612 C.3     
  31 C31           -1.1510    -4.9315     2.9075 C.3     
  32 C32           -1.5017    -5.9346     1.8068 C.3     
  33 H33           -0.6522    -0.1097    -1.3458 H       
  34 H34            0.8388    -0.3079    -0.3883 H       
  35 H35           -1.2499    -1.3930     0.6201 H       
  36 H36           -0.4000    -0.2502     1.6928 H       
  37 H37           -3.0564     2.3859     0.9447 H       
  38 H38           -1.5654     2.1877     1.9022 H       
  39 H39           -0.1073     3.9599     0.7921 H       
  40 H40           -0.4574     4.3060    -0.9184 H       
  41 H41           -1.7449     4.4555     0.3015 H       
  42 H42           -2.9596     2.8817    -1.4245 H       
  43 H43           -1.4548     2.6445    -2.3451 H       
  44 H44           -2.3088     1.2417    -1.6589 H       
  45 H45            6.0430    -1.3515    -0.1581 H       
  46 H46            5.9257     2.9128     0.1320 H       
  47 H47            8.3773     2.9606     0.3439 H       
  48 H48            9.6590     0.8599     0.3082 H       
  49 H49            8.4940    -1.2936     0.0576 H       
  50 H50           -3.7493    -5.3878     0.7859 H       
  51 H51           -5.7672    -4.0524     0.2255 H       
  52 H52           -5.6058    -1.5722     0.2724 H       
  53 H53           -0.3990    -4.1820     0.9221 H       
  54 H54           -0.1427    -4.9688     3.3199 H       
  55 H55           -1.9377    -4.6622     3.6123 H       
  56 H56           -2.5191    -6.3253     1.7874 H       
  57 H57           -0.7241    -6.6319     1.4949 H       
@<TRIPOS>BOND
   1    1    2 1
   2    1    9 am
   3    1    6 1
   4    2    3 1
   5    2   33 1
   6    2   34 1
   7    3    4 1
   8    3   35 1
   9    3   36 1
  10    4    5 1
  11    4   22 am
  12    5    6 1
  13    5   37 1
  14    5   38 1
  15    6    7 1
  16    6    8 1
  17    7   39 1
  18    7   40 1
  19    7   41 1
  20    8   42 1
  21    8   43 1
  22    8   44 1
  23    9   10 1
  24    9   11 2
  25   10   12 1
  26   10   15 2
  27   12   13 2
  28   13   14 1
  29   14   15 1
  30   14   16 1
  31   16   17 ar
  32   16   18 ar
  33   17   21 ar
  34   17   45 1
  35   18   19 ar
  36   18   46 1
  37   19   20 ar
  38   19   47 1
  39   20   21 ar
  40   20   48 1
  41   21   49 1
  42   22   23 1
  43   22   24 2
  44   23   25 ar
  45   23   29 ar
  46   25   26 ar
  47   26   27 ar
  48   26   30 1
  49   27   28 ar
  50   27   50 1
  51   28   29 ar
  52   28   51 1
  53   29   52 1
  54   30   31 1
  55   30   32 1
  56   30   53 1
  57   31   32 1
  58   31   54 1
  59   31   55 1
  60   32   56 1
  61   32   57 1

#	End of record

