#	Name: ASD03731567
#	Creating user name:	WinNT
#	Creation time:	15. 06. 2019 20:45

#	Modifying user name:	WinNT
#	Modification time:	15. 06. 2019 20:45

#	Program:	/corina/corina34_cracker 3.40 0067  02.08.2006

@<TRIPOS>MOLECULE
ASD03731567
  33   34    0    0    0
SMALL
NO_CHARGES


@<TRIPOS>ATOM
   1 C1            -0.7923     1.3884     0.4247 C.2     
   2 C2            -0.5687    -0.0643     0.3071 C.ar    
   3 C3             0.5815    -0.5488    -0.3277 C.ar    
   4 C4             0.7853    -1.9096    -0.4347 C.ar    
   5 C5            -0.1485    -2.7961     0.0863 C.ar    
   6 C6            -1.2921    -2.3176     0.7170 C.ar    
   7 C7            -1.5013    -0.9622     0.8342 C.ar    
   8 O8             0.0227     2.1679    -0.0301 O.2     
   9 N9            -1.9029     1.8524     1.0312 N.am    
  10 S10           -2.1541     3.4839     1.1632 S.o2    
  11 O11           -3.3843     3.5933     1.8659 O.2     
  12 O12           -0.9452     3.9806     1.7209 O.2     
  13 C13           -2.3461     4.0522    -0.5487 C.3     
  14 F14            1.4894     0.3138    -0.8347 F       
  15 O15            0.0553    -4.1333    -0.0208 O.3     
  16 C16           -0.4545    -4.7715    -1.1070 C.ar    
  17 C17           -1.0643    -4.0426    -2.1180 C.ar    
  18 C18           -1.5818    -4.6937    -3.2221 C.ar    
  19 C19           -1.4920    -6.0725    -3.3187 C.ar    
  20 C20           -0.8842    -6.7999    -2.3113 C.ar    
  21 C21           -0.3608    -6.1519    -1.2089 C.ar    
  22 Cl22          -2.1434    -6.8887    -4.7055 Cl      
  23 Cl23          -2.3450    -3.7830    -4.4877 Cl      
  24 H24            1.6716    -2.2855    -0.9243 H       
  25 H25           -2.0152    -3.0111     1.1200 H       
  26 H26           -2.3876    -0.5929     1.3285 H       
  27 H27           -2.5550     1.2306     1.3905 H       
  28 H28           -3.1956     3.5455    -1.0067 H       
  29 H29           -2.5175     5.1286    -0.5571 H       
  30 H30           -1.4406     3.8241    -1.1110 H       
  31 H31           -1.1349    -2.9676    -2.0422 H       
  32 H32           -0.8151    -7.8749    -2.3884 H       
  33 H33            0.1172    -6.7202    -0.4247 H       
@<TRIPOS>BOND
   1    1    2 1
   2    1    8 2
   3    1    9 am
   4    2    3 ar
   5    2    7 ar
   6    3    4 ar
   7    3   14 1
   8    4    5 ar
   9    4   24 1
  10    5    6 ar
  11    5   15 1
  12    6    7 ar
  13    6   25 1
  14    7   26 1
  15    9   10 am
  16    9   27 1
  17   10   11 2
  18   10   12 2
  19   10   13 1
  20   13   28 1
  21   13   29 1
  22   13   30 1
  23   15   16 1
  24   16   17 ar
  25   16   21 ar
  26   17   18 ar
  27   17   31 1
  28   18   19 ar
  29   18   23 1
  30   19   20 ar
  31   19   22 1
  32   20   21 ar
  33   20   32 1
  34   21   33 1

#	End of record

