#	Name: ASD03740176
#	Creating user name:	WinNT
#	Creation time:	15. 06. 2019 20:46

#	Modifying user name:	WinNT
#	Modification time:	15. 06. 2019 20:46

#	Program:	/corina/corina34_cracker 3.40 0067  02.08.2006

@<TRIPOS>MOLECULE
ASD03740176
  54   57    0    0    0
SMALL
NO_CHARGES


@<TRIPOS>ATOM
   1 C1            -0.0168     1.3859     0.0097 C.ar    
   2 C2             0.0021    -0.0041     0.0020 C.ar    
   3 C3            -1.1619    -0.7194     0.0093 C.ar    
   4 C4            -2.3849    -0.0535     0.0245 C.ar    
   5 C5            -2.4062     1.3544     0.0323 C.ar    
   6 C6            -1.2020     2.0651     0.0303 C.ar    
   7 N7            -3.6913    -0.4692     0.0352 N.pl3   
   8 N8            -4.5293     0.6505     0.0495 N.2     
   9 C9            -3.8160     1.7436     0.0483 C.2     
  10 O10           -4.2970     3.0149     0.0603 O.3     
  11 C11           -4.1384    -1.8643     0.0317 C.3     
  12 C12           -4.2775    -2.3508     1.4512 C.ar    
  13 C13           -5.4815    -2.2085     2.1155 C.ar    
  14 C14           -5.6097    -2.6545     3.4174 C.ar    
  15 C15           -4.5328    -3.2434     4.0558 C.ar    
  16 C16           -3.3281    -3.3856     3.3905 C.ar    
  17 C17           -3.2028    -2.9443     2.0866 C.ar    
  18 C18           -5.7173     3.1711     0.0751 C.3     
  19 C19           -6.0665     4.6607     0.0870 C.3     
  20 Cl20          -4.6929    -3.8033     5.6912 Cl      
  21 Cl21           1.4792     2.2665     0.0001 Cl      
  22 C22           -7.5693     6.8733     1.4069 C.3     
  23 N23           -7.9224     6.2582     0.1143 N.3     
  24 C24           -7.5872     4.8280     0.1028 C.3     
  25 C25           -8.8542     7.5110     1.9760 C.3     
  26 C26           -9.7321     7.7147     0.7132 C.3     
  27 C27           -9.3662     6.4659    -0.1271 C.3     
  28 C28           -9.6257     6.7283    -1.6119 C.3     
  29 O29           -8.9466     7.9207    -2.0107 O.3     
  30 H30            0.9482    -0.5247    -0.0102 H       
  31 H31           -1.1336    -1.7990     0.0029 H       
  32 H32           -1.2089     3.1451     0.0366 H       
  33 H33           -5.1019    -1.9358    -0.4729 H       
  34 H34           -3.4070    -2.4790    -0.4930 H       
  35 H35           -6.3220    -1.7484     1.6172 H       
  36 H36           -6.5502    -2.5429     3.9364 H       
  37 H37           -2.4871    -3.8453     3.8883 H       
  38 H38           -2.2625    -3.0553     1.5671 H       
  39 H39           -6.1434     2.7052    -0.8134 H       
  40 H40           -6.1259     2.6950     0.9664 H       
  41 H41           -5.6404     5.1267     0.9755 H       
  42 H42           -5.6578     5.1368    -0.8043 H       
  43 H43           -7.1991     6.1104     2.0918 H       
  44 H44           -6.8095     7.6404     1.2572 H       
  45 H45           -8.0133     4.3620    -0.7857 H       
  46 H46           -7.9958     4.3519     0.9942 H       
  47 H47           -9.3411     6.8351     2.6790 H       
  48 H48           -8.6326     8.4673     2.4497 H       
  49 H49          -10.7914     7.7158     0.9702 H       
  50 H50           -9.4578     8.6311     0.1906 H       
  51 H51           -9.9359     5.6005     0.2114 H       
  52 H52           -9.2578     5.8870    -2.1992 H       
  53 H53          -10.6963     6.8469    -1.7782 H       
  54 H54           -9.0670     8.1490    -2.9426 H       
@<TRIPOS>BOND
   1    1    2 ar
   2    1   21 1
   3    1    6 ar
   4    2    3 ar
   5    2   30 1
   6    3    4 ar
   7    3   31 1
   8    4    5 ar
   9    4    7 1
  10    5    6 ar
  11    5    9 1
  12    6   32 1
  13    7    8 1
  14    7   11 1
  15    8    9 2
  16    9   10 1
  17   10   18 1
  18   11   12 1
  19   11   33 1
  20   11   34 1
  21   12   13 ar
  22   12   17 ar
  23   13   14 ar
  24   13   35 1
  25   14   15 ar
  26   14   36 1
  27   15   16 ar
  28   15   20 1
  29   16   17 ar
  30   16   37 1
  31   17   38 1
  32   18   19 1
  33   18   39 1
  34   18   40 1
  35   19   24 1
  36   19   41 1
  37   19   42 1
  38   22   23 1
  39   22   25 1
  40   22   43 1
  41   22   44 1
  42   23   24 1
  43   23   27 1
  44   24   45 1
  45   24   46 1
  46   25   26 1
  47   25   47 1
  48   25   48 1
  49   26   27 1
  50   26   49 1
  51   26   50 1
  52   27   28 1
  53   27   51 1
  54   28   29 1
  55   28   52 1
  56   28   53 1
  57   29   54 1

#	End of record

