#	Name: ASD03451007
#	Creating user name:	WinNT
#	Creation time:	15. 06. 2019 20:42

#	Modifying user name:	WinNT
#	Modification time:	15. 06. 2019 20:42

#	Program:	/corina/corina34_cracker 3.40 0067  02.08.2006

@<TRIPOS>MOLECULE
ASD03451007
  55   59    0    0    0
SMALL
NO_CHARGES


@<TRIPOS>ATOM
   1 C1            -0.0589     1.8343     0.3538 C.ar    
   2 C2            -0.1090     0.4748     0.0942 C.ar    
   3 C3             1.0527    -0.2318    -0.1224 C.ar    
   4 C4             2.2963     0.4127    -0.0831 C.ar    
   5 C5             2.3469     1.7878     0.1716 C.ar    
   6 C6             1.1526     2.4875     0.3932 C.ar    
   7 C7             3.4990    -0.4057    -0.3082 C.2     
   8 N8             4.6017    -0.2672     0.3451 N.2     
   9 C9             4.7503     0.7600     1.3764 C.3     
  10 C10            4.5979     2.1120     0.7379 C.2     
  11 N11            3.5069     2.5004     0.2102 N.2     
  12 C12            3.4382    -1.4557    -1.3517 C.ar    
  13 C13            2.5227    -1.3502    -2.3986 C.ar    
  14 C14            2.4711    -2.3311    -3.3676 C.ar    
  15 C15            3.3248    -3.4178    -3.3020 C.ar    
  16 C16            4.2351    -3.5280    -2.2660 C.ar    
  17 C17            4.3001    -2.5507    -1.2942 C.ar    
  18 C18            5.7824     3.0435     0.7224 C.3     
  19 C19            6.2166     3.3404     2.1591 C.3     
  20 C20            6.9384     2.3861    -0.0342 C.3     
  21 C21            3.6881     0.5759     2.4294 C.2     
  22 S22            2.9366     1.8732     3.3492 S.3     
  23 C23            1.9363     0.7173     4.2191 C.2     
  24 C24            2.2068    -0.5176     3.7937 C.2     
  25 C25            3.1700    -0.5952     2.8025 C.2     
  26 N26            5.4103     4.2977     0.0542 N.3     
  27 C27            6.5486     5.2347     0.0171 C.3     
  28 C28            6.1418     5.5849    -1.4211 C.3     
  29 C29            5.5365     4.1742    -1.4100 C.3     
  30 O30            5.1771     6.6347    -1.5172 O.3     
  31 H31           -0.9729     2.3846     0.5215 H       
  32 H32           -1.0619    -0.0326     0.0620 H       
  33 H33            1.0050    -1.2918    -0.3239 H       
  34 H34            1.1830     3.5478     0.5964 H       
  35 H35            5.7373     0.6802     1.8320 H       
  36 H36            1.8553    -0.5027    -2.4504 H       
  37 H37            1.7627    -2.2505    -4.1788 H       
  38 H38            3.2802    -4.1833    -4.0625 H       
  39 H39            4.8989    -4.3786    -2.2202 H       
  40 H40            5.0111    -2.6378    -0.4859 H       
  41 H41            6.4927     2.4098     2.6549 H       
  42 H42            7.0734     4.0142     2.1479 H       
  43 H43            5.3931     3.8088     2.6981 H       
  44 H44            6.5764     2.0014    -0.9877 H       
  45 H45            7.7212     3.1231    -0.2134 H       
  46 H46            7.3410     1.5653     0.5594 H       
  47 H47            1.2138     0.9689     4.9814 H       
  48 H48            1.7092    -1.3905     4.1897 H       
  49 H49            3.4832    -1.5335     2.3690 H       
  50 H50            6.4477     6.0683     0.7121 H       
  51 H51            7.5187     4.7424     0.0863 H       
  52 H52            6.9813     5.7049    -2.1058 H       
  53 H53            6.2364     3.3989    -1.7216 H       
  54 H54            4.5777     4.1089    -1.9245 H       
  55 H55            4.9226     6.8533    -2.4241 H       
@<TRIPOS>BOND
   1    1    2 ar
   2    1    6 ar
   3    1   31 1
   4    2    3 ar
   5    2   32 1
   6    3    4 ar
   7    3   33 1
   8    4    5 ar
   9    4    7 1
  10    5    6 ar
  11    5   11 1
  12    6   34 1
  13    7    8 2
  14    7   12 1
  15    8    9 1
  16    9   10 1
  17    9   21 1
  18    9   35 1
  19   10   11 2
  20   10   18 1
  21   12   13 ar
  22   12   17 ar
  23   13   14 ar
  24   13   36 1
  25   14   15 ar
  26   14   37 1
  27   15   16 ar
  28   15   38 1
  29   16   17 ar
  30   16   39 1
  31   17   40 1
  32   18   19 1
  33   18   20 1
  34   18   26 1
  35   19   41 1
  36   19   42 1
  37   19   43 1
  38   20   44 1
  39   20   45 1
  40   20   46 1
  41   21   22 1
  42   21   25 2
  43   22   23 1
  44   23   24 2
  45   23   47 1
  46   24   25 1
  47   24   48 1
  48   25   49 1
  49   26   27 1
  50   26   29 1
  51   27   28 1
  52   27   50 1
  53   27   51 1
  54   28   29 1
  55   28   30 1
  56   28   52 1
  57   29   53 1
  58   29   54 1
  59   30   55 1

#	End of record

