#	Name: ASD00842216
#	Creating user name:	WinNT
#	Creation time:	15. 06. 2019 18:43

#	Modifying user name:	WinNT
#	Modification time:	15. 06. 2019 18:43

#	Program:	/corina/corina34_cracker 3.40 0067  02.08.2006

@<TRIPOS>MOLECULE
ASD00842216
  99  104    0    0    0
SMALL
NO_CHARGES


@<TRIPOS>ATOM
   1 F1             6.0002    -1.6942    -2.1759 F       
   2 C2             0.8837     1.5137    -0.7011 C.ar    
   3 C3             1.2173     0.1748    -0.8436 C.ar    
   4 C4             1.1993    -0.6637     0.2618 C.ar    
   5 C5             0.8495    -0.1636     1.5008 C.ar    
   6 C6             0.5169     1.1714     1.6402 C.ar    
   7 C7             0.5345     2.0090     0.5405 C.ar    
   8 C8             1.5607    -2.1188     0.1104 C.3     
   9 C9             1.3471    -2.8565     1.4148 C.2     
  10 C10            0.7382    -2.7603    -1.0089 C.3     
  11 C11           -0.7284    -2.5308    -0.7493 C.2     
  12 N12           -1.6506    -3.0671    -1.5731 N.am    
  13 O13           -1.0790    -1.8635     0.2008 O.2     
  14 C14           -3.0766    -2.7565    -1.4037 C.3     
  15 C15           -3.8580    -4.0698    -1.2971 C.3     
  16 C16           -3.5454    -4.9449    -2.5131 C.3     
  17 C17           -2.0507    -5.2728    -2.5371 C.3     
  18 C18           -1.2483    -3.9687    -2.6612 C.3     
  19 C19           -4.3507    -6.2430    -2.4274 C.3     
  20 C20           -5.8465    -5.9167    -2.4050 C.3     
  21 C21           -6.6478    -7.2204    -2.3808 C.3     
  22 N22           -6.3205    -8.0197    -3.5684 N.3     
  23 C23           -4.8984    -8.3852    -3.5872 C.3     
  24 C24           -4.0450    -7.1163    -3.6475 C.3     
  25 C25           -7.1722    -9.2138    -3.6503 C.3     
  26 O26            0.2952    -2.9865     2.0045 O.2     
  27 N27            2.5406    -3.3409     1.7968 N.am    
  28 C28            3.0402    -2.2716    -0.1615 C.ar    
  29 C29            3.5563    -3.0159     0.8944 C.ar    
  30 C30            3.8510    -1.8303    -1.1838 C.ar    
  31 C31            5.2032    -2.1253    -1.1737 C.ar    
  32 C32            5.7397    -2.8725    -0.1203 C.ar    
  33 C33            4.9132    -3.3165     0.9115 C.ar    
  34 C34            2.5532    -5.9189     2.7602 C.ar    
  35 C35            1.3077    -6.3726     2.3517 C.ar    
  36 C36            3.6172    -6.7972     2.8337 C.ar    
  37 C37            3.4414    -8.1272     2.5000 C.ar    
  38 C38            2.2007    -8.5821     2.0924 C.ar    
  39 C39            1.1337    -7.7081     2.0178 C.ar    
  40 H40            2.0659    -9.6216     1.8323 H       
  41 O41            0.2595    -5.5108     2.2791 O.3     
  42 C42           -0.9935    -6.0478     1.8506 C.3     
  43 C43           -2.0450    -4.9365     1.8315 C.3     
  44 C44           -6.9809    -9.8842    -5.0123 C.3     
  45 C45           -7.8679   -11.1280    -5.0976 C.3     
  46 S46            2.7800    -4.2222     3.1782 S.o2    
  47 O47            4.1518    -4.0723     3.5170 O.2     
  48 O48            1.7196    -3.8811     4.0606 O.2     
  49 C49            7.1377    -3.1824    -0.1015 C.1     
  50 N50            8.2467    -3.4283    -0.0866 N.1     
  51 O51            1.5608    -0.3149    -2.0639 O.3     
  52 C52            1.9725    -0.1138    -4.4368 C.3     
  53 C53            1.4492     0.5762    -3.1754 C.3     
  54 H54            0.9013     2.1693    -1.5592 H       
  55 H55            0.8353    -0.8158     2.3615 H       
  56 H56            0.2429     1.5604     2.6097 H       
  57 H57            0.2743     3.0513     0.6519 H       
  58 H58            1.0126    -2.3122    -1.9639 H       
  59 H59            0.9386    -3.8313    -1.0391 H       
  60 H60           -3.2179    -2.1724    -0.4944 H       
  61 H61           -3.4316    -2.1889    -2.2639 H       
  62 H62           -3.5662    -4.5939    -0.3870 H       
  63 H63           -4.9264    -3.8561    -1.2677 H       
  64 H64           -3.8146    -4.4103    -3.4240 H       
  65 H65           -1.7759    -5.7856    -1.6153 H       
  66 H66           -1.8328    -5.9152    -3.3902 H       
  67 H67           -1.4554    -3.5025    -3.6245 H       
  68 H68           -0.1833    -4.1857    -2.5794 H       
  69 H69           -4.0812    -6.7795    -1.5176 H       
  70 H70           -6.0779    -5.3308    -1.5155 H       
  71 H71           -6.1078    -5.3455    -3.2959 H       
  72 H72           -6.3962    -7.7846    -1.4827 H       
  73 H73           -7.7135    -6.9917    -2.3793 H       
  74 H74           -4.6551    -8.9439    -2.6835 H       
  75 H75           -4.6936    -9.0025    -4.4619 H       
  76 H76           -4.2779    -6.5640    -4.5578 H       
  77 H77           -2.9892    -7.3874    -3.6456 H       
  78 H78           -6.8962    -9.9118    -2.8599 H       
  79 H79           -8.2162    -8.9244    -3.5313 H       
  80 H80            3.4310    -1.2537    -1.9946 H       
  81 H81            5.3279    -3.8936     1.7248 H       
  82 H82            4.5871    -6.4444     3.1517 H       
  83 H83            4.2745    -8.8121     2.5573 H       
  84 H84            0.1648    -8.0640     1.7001 H       
  85 H85           -0.8868    -6.4643     0.8489 H       
  86 H86           -1.3069    -6.8327     2.5389 H       
  87 H87           -3.0007    -5.3462     1.5047 H       
  88 H88           -2.1517    -4.5201     2.8332 H       
  89 H89           -1.7316    -4.1516     1.1432 H       
  90 H90           -7.2568    -9.1863    -5.8027 H       
  91 H91           -5.9368   -10.1737    -5.1313 H       
  92 H92           -7.7316   -11.6056    -6.0678 H       
  93 H93           -7.5919   -11.8259    -4.3071 H       
  94 H94           -8.9119   -10.8385    -4.9785 H       
  95 H95            2.9895    -0.4653    -4.2633 H       
  96 H96            1.3316    -0.9613    -4.6798 H       
  97 H97            1.9691     0.5938    -5.2659 H       
  98 H98            0.4038     0.8499    -3.3181 H       
  99 H99            2.0366     1.4738    -2.9820 H       
@<TRIPOS>BOND
   1    1   31 1
   2    2    3 ar
   3    2    7 ar
   4    2   54 1
   5    3    4 ar
   6    3   51 1
   7    4    5 ar
   8    4    8 1
   9    5    6 ar
  10    5   55 1
  11    6    7 ar
  12    6   56 1
  13    7   57 1
  14    8    9 1
  15    8   10 1
  16    8   28 1
  17    9   26 2
  18    9   27 am
  19   10   11 1
  20   10   58 1
  21   10   59 1
  22   11   12 am
  23   11   13 2
  24   12   14 1
  25   12   18 1
  26   14   15 1
  27   14   60 1
  28   14   61 1
  29   15   16 1
  30   15   62 1
  31   15   63 1
  32   16   17 1
  33   16   19 1
  34   16   64 1
  35   17   18 1
  36   17   65 1
  37   17   66 1
  38   18   67 1
  39   18   68 1
  40   19   20 1
  41   19   24 1
  42   19   69 1
  43   20   21 1
  44   20   70 1
  45   20   71 1
  46   21   22 1
  47   21   72 1
  48   21   73 1
  49   22   23 1
  50   22   25 1
  51   23   24 1
  52   23   74 1
  53   23   75 1
  54   24   76 1
  55   24   77 1
  56   25   44 1
  57   25   78 1
  58   25   79 1
  59   27   46 am
  60   27   29 1
  61   28   29 ar
  62   28   30 ar
  63   29   33 ar
  64   30   31 ar
  65   30   80 1
  66   31   32 ar
  67   32   33 ar
  68   32   49 1
  69   33   81 1
  70   34   35 ar
  71   34   36 ar
  72   34   46 1
  73   35   41 1
  74   35   39 ar
  75   36   37 ar
  76   36   82 1
  77   37   38 ar
  78   37   83 1
  79   38   39 ar
  80   38   40 1
  81   39   84 1
  82   41   42 1
  83   42   43 1
  84   42   85 1
  85   42   86 1
  86   43   87 1
  87   43   88 1
  88   43   89 1
  89   44   45 1
  90   44   90 1
  91   44   91 1
  92   45   92 1
  93   45   93 1
  94   45   94 1
  95   46   47 2
  96   46   48 2
  97   49   50 3
  98   51   53 1
  99   52   53 1
 100   52   95 1
 101   52   96 1
 102   52   97 1
 103   53   98 1
 104   53   99 1

#	End of record

