#	Name: ASD01912536
#	Creating user name:	WinNT
#	Creation time:	15. 06. 2019 19:59

#	Modifying user name:	WinNT
#	Modification time:	15. 06. 2019 19:59

#	Program:	/corina/corina34_cracker 3.40 0067  02.08.2006

@<TRIPOS>MOLECULE
ASD01912536
  58   61    0    0    0
SMALL
NO_CHARGES


@<TRIPOS>ATOM
   1 C1            -0.0166     1.3762     0.0096 C.ar    
   2 C2             0.0021    -0.0041     0.0020 C.ar    
   3 C3            -1.1962    -0.7144     0.0096 C.ar    
   4 C4            -2.4080    -0.0265     0.0249 C.ar    
   5 C5            -2.4151     1.3534     0.0324 C.ar    
   6 C6            -1.2221     2.0538     0.0305 C.ar    
   7 C7            -1.1823    -2.1985     0.0010 C.2     
   8 N8            -0.1108    -2.9628    -0.0133 N.2     
   9 C9            -2.3133    -3.0378     0.0129 C.2     
  10 C10           -1.8797    -4.3171    -0.0007 C.2     
  11 N11           -0.5295    -4.2995    -0.0170 N.pl3   
  12 C12           -2.7497    -5.5476     0.0059 C.3     
  13 C13            0.3454    -5.4743    -0.0350 C.3     
  14 C14            0.6281    -5.8683    -1.4619 C.2     
  15 N15            1.4165    -6.9294    -1.7244 N.am    
  16 O16            0.1462    -5.2305    -2.3739 O.2     
  17 C17            1.7052    -7.3311    -3.1095 C.3     
  18 C18            2.0159    -7.7128    -0.6334 C.3     
  19 C19            3.5205    -7.8399    -0.8951 C.3     
  20 N20            3.7356    -8.3850    -2.2421 N.3     
  21 C21            3.2226    -7.4740    -3.2687 C.3     
  22 C22            5.0752    -8.6664    -2.4557 C.ar    
  23 N23            5.4521    -9.1671    -3.6226 N.ar    
  24 N24            5.9483    -8.4231    -1.4898 N.ar    
  25 C25            7.2349    -8.6799    -1.6601 C.ar    
  26 C26            7.6646    -9.2103    -2.8684 C.ar    
  27 C27            6.7230    -9.4473    -3.8601 C.ar    
  28 C28           -3.1682    -5.8840    -1.4268 C.3     
  29 C29            1.2789     2.1461     0.0014 C.3     
  30 C30            1.7035     2.4143    -1.4438 C.3     
  31 F31            8.9710    -9.4843    -3.0769 F       
  32 H32            0.9440    -0.5323    -0.0102 H       
  33 H33           -3.3399    -0.5724     0.0305 H       
  34 H34           -3.3537     1.8876     0.0439 H       
  35 H35           -1.2322     3.1338     0.0367 H       
  36 H36           -3.3441    -2.7158     0.0304 H       
  37 H37           -2.1926    -6.3842     0.4276 H       
  38 H38           -3.6379    -5.3614     0.6096 H       
  39 H39            1.2824    -5.2373     0.4689 H       
  40 H40           -0.1451    -6.3005     0.4797 H       
  41 H41            1.2233    -8.2854    -3.3221 H       
  42 H42            1.3351    -6.5698    -3.7962 H       
  43 H43            1.8511    -7.2038     0.3162 H       
  44 H44            1.5644    -8.7045    -0.6037 H       
  45 H45            3.9867    -6.8574    -0.8215 H       
  46 H46            3.9628    -8.5090    -0.1570 H       
  47 H47            3.4441    -7.8775    -4.2567 H       
  48 H48            3.6966    -6.4986    -3.1592 H       
  49 H49            7.9420    -8.4790    -0.8688 H       
  50 H50            7.0235    -9.8593    -4.8121 H       
  51 H51           -3.7974    -6.7740    -1.4221 H       
  52 H52           -3.7253    -5.0474    -1.8485 H       
  53 H53           -2.2800    -6.0702    -2.0306 H       
  54 H54            1.1415     3.0940     0.5216 H       
  55 H55            2.0507     1.5638     0.5047 H       
  56 H56            1.8409     1.4664    -1.9641 H       
  57 H57            0.9317     2.9966    -1.9472 H       
  58 H58            2.6406     2.9711    -1.4498 H       
@<TRIPOS>BOND
   1    1    2 ar
   2    1   29 1
   3    1    6 ar
   4    2    3 ar
   5    2   32 1
   6    3    4 ar
   7    3    7 1
   8    4    5 ar
   9    4   33 1
  10    5    6 ar
  11    5   34 1
  12    6   35 1
  13    7    8 2
  14    7    9 1
  15    8   11 1
  16    9   10 2
  17    9   36 1
  18   10   11 1
  19   10   12 1
  20   11   13 1
  21   12   28 1
  22   12   37 1
  23   12   38 1
  24   13   14 1
  25   13   39 1
  26   13   40 1
  27   14   15 am
  28   14   16 2
  29   15   17 1
  30   15   18 1
  31   17   21 1
  32   17   41 1
  33   17   42 1
  34   18   19 1
  35   18   43 1
  36   18   44 1
  37   19   20 1
  38   19   45 1
  39   19   46 1
  40   20   21 1
  41   20   22 1
  42   21   47 1
  43   21   48 1
  44   22   23 ar
  45   22   24 ar
  46   23   27 ar
  47   24   25 ar
  48   25   26 ar
  49   25   49 1
  50   26   27 ar
  51   26   31 1
  52   27   50 1
  53   28   51 1
  54   28   52 1
  55   28   53 1
  56   29   30 1
  57   29   54 1
  58   29   55 1
  59   30   56 1
  60   30   57 1
  61   30   58 1

#	End of record

