#	Name: ASD01152569
#	Creating user name:	WinNT
#	Creation time:	15. 06. 2019 19:06

#	Modifying user name:	WinNT
#	Modification time:	15. 06. 2019 19:06

#	Program:	/corina/corina34_cracker 3.40 0067  02.08.2006

@<TRIPOS>MOLECULE
ASD01152569
  48   50    0    0    0
SMALL
NO_CHARGES


@<TRIPOS>ATOM
   1 C1             0.4616     1.1158     0.7528 C.2     
   2 N2             0.3480    -0.1614     0.5710 N.2     
   3 N3            -0.8543    -0.8216     0.3367 N.am    
   4 C4            -2.0325    -0.1676     0.2781 C.2     
   5 C5            -2.0215     1.3356     0.4770 C.3     
   6 C6            -0.6677     1.9711     0.7322 C.2     
   7 C7            -2.6280     1.9838    -0.7691 C.3     
   8 O8            -0.5554     3.1677     0.9040 O.2     
   9 C9            -0.8406    -2.2095     0.1555 C.ar    
  10 O10           -3.0682    -0.7631     0.0723 O.2     
  11 C11           -4.0783     1.5911    -0.8844 C.ar    
  12 C12           -1.7308    -3.0103     0.8566 C.ar    
  13 C13            0.0607    -2.7863    -0.7311 C.ar    
  14 C14            0.0748    -4.1559    -0.9104 C.ar    
  15 C15           -0.8069    -4.9566    -0.2097 C.ar    
  16 C16           -1.7139    -4.3858     0.6741 C.ar    
  17 C17           -5.0540     2.3680    -0.2881 C.ar    
  18 C18           -4.4330     0.4571    -1.5910 C.ar    
  19 C19           -5.7631     0.0966    -1.6975 C.ar    
  20 C20           -6.3844     2.0083    -0.3935 C.ar    
  21 C21           -6.7395     0.8707    -1.0962 C.ar    
  22 Cl22          -8.4103     0.4185    -1.2294 Cl      
  23 C23            2.8743     0.5906     0.9808 C.3     
  24 C24            1.8266     1.7054     0.9984 C.3     
  25 N25           -2.6099    -5.1969     1.3793 N.am    
  26 C26           -2.2251    -6.4177     1.8012 C.2     
  27 O27           -1.1320    -6.8473     1.4983 O.2     
  28 C28           -3.1529    -7.2489     2.6494 C.3     
  29 H29           -2.6665     1.5694     1.3241 H       
  30 H30           -2.5505     3.0681    -0.6889 H       
  31 H31           -2.0885     1.6455    -1.6538 H       
  32 H32           -2.4350    -2.5641     1.5431 H       
  33 H33            0.7506    -2.1632    -1.2807 H       
  34 H34            0.7763    -4.6018    -1.6000 H       
  35 H35           -0.7938    -6.0270    -0.3527 H       
  36 H36           -4.7766     3.2560     0.2604 H       
  37 H37           -3.6707    -0.1471    -2.0603 H       
  38 H38           -6.0401    -0.7889    -2.2502 H       
  39 H39           -7.1465     2.6151     0.0727 H       
  40 H40            3.8616     1.0170     1.1584 H       
  41 H41            2.6461    -0.1348     1.7617 H       
  42 H42            2.8617     0.0954     0.0099 H       
  43 H43            2.0548     2.4308     0.2175 H       
  44 H44            1.8392     2.2006     1.9693 H       
  45 H45           -3.5080    -4.8806     1.5644 H       
  46 H46           -3.7766    -7.8687     2.0052 H       
  47 H47           -2.5668    -7.8870     3.3107 H       
  48 H48           -3.7863    -6.5921     3.2456 H       
@<TRIPOS>BOND
   1    1    2 2
   2    1   24 1
   3    1    6 1
   4    2    3 1
   5    3    4 am
   6    3    9 1
   7    4    5 1
   8    4   10 2
   9    5    6 1
  10    5    7 1
  11    5   29 1
  12    6    8 2
  13    7   11 1
  14    7   30 1
  15    7   31 1
  16    9   12 ar
  17    9   13 ar
  18   11   17 ar
  19   11   18 ar
  20   12   16 ar
  21   12   32 1
  22   13   14 ar
  23   13   33 1
  24   14   15 ar
  25   14   34 1
  26   15   16 ar
  27   15   35 1
  28   16   25 1
  29   17   20 ar
  30   17   36 1
  31   18   19 ar
  32   18   37 1
  33   19   21 ar
  34   19   38 1
  35   20   21 ar
  36   20   39 1
  37   21   22 1
  38   23   24 1
  39   23   40 1
  40   23   41 1
  41   23   42 1
  42   24   43 1
  43   24   44 1
  44   25   26 am
  45   25   45 1
  46   26   27 2
  47   26   28 1
  48   28   46 1
  49   28   47 1
  50   28   48 1

#	End of record

