#	Name: ASD01230727
#	Creating user name:	WinNT
#	Creation time:	15. 06. 2019 19:14

#	Modifying user name:	WinNT
#	Modification time:	15. 06. 2019 19:14

#	Program:	/corina/corina34_cracker 3.40 0067  02.08.2006

@<TRIPOS>MOLECULE
ASD01230727
  46   49    0    0    0
SMALL
NO_CHARGES


@<TRIPOS>ATOM
   1 C1            -0.0177     1.4562     0.0100 C.3     
   2 N2            -0.0055     0.0124    -0.2092 N.3     
   3 C3            -1.0587    -0.7266     0.4794 C.3     
   4 C4            -2.3030     0.1375     0.7017 C.3     
   5 N5            -1.9053     1.2634     1.5607 N.pl3   
   6 C6            -0.6605     1.7943     1.3389 C.2     
   7 C7            -2.8125     1.8009     2.5654 C.3     
   8 C8            -2.0911     1.8942     3.9113 C.3     
   9 S9            -0.5644     2.8488     3.7084 S.o2    
  10 N10           -0.0271     2.5031     2.1912 N.am    
  11 C11            1.3985     1.9712    -0.0007 C.ar    
  12 C12            2.4549     1.0831     0.0890 C.ar    
  13 O13           -0.8517     4.2398     3.6659 O.2     
  14 O14            0.4537     2.3422     4.5605 O.2     
  15 C15            1.6367     3.3296    -0.1059 C.ar    
  16 C16            2.9314     3.8083    -0.1168 C.ar    
  17 C17            4.0007     2.9207    -0.0212 C.ar    
  18 C18            3.7559     1.5503     0.0795 C.ar    
  19 C19            5.3943     3.4295    -0.0329 C.ar    
  20 C20            6.2967     3.0196     0.9466 C.ar    
  21 C21            5.8073     4.3145    -1.0269 C.ar    
  22 C22            7.1050     4.7843    -1.0333 C.ar    
  23 C23            7.9951     4.3782    -0.0554 C.ar    
  24 C24            7.5920     3.4958     0.9306 C.ar    
  25 F25            4.7876     0.6831     0.1731 F       
  26 C26           -0.8064     2.1294    -1.1150 C.3     
  27 H27            0.0026    -0.2036    -1.1948 H       
  28 H28           -1.3318    -1.5963    -0.1181 H       
  29 H29           -0.6829    -1.0641     1.4453 H       
  30 H30           -2.6703     0.5117    -0.2539 H       
  31 H31           -3.0786    -0.4489     1.1943 H       
  32 H32           -3.1435     2.7940     2.2615 H       
  33 H33           -3.6772     1.1444     2.6619 H       
  34 H34           -2.7365     2.3900     4.6364 H       
  35 H35           -1.8491     0.8918     4.2646 H       
  36 H36            2.2631     0.0232     0.1668 H       
  37 H37            0.8075     4.0176    -0.1801 H       
  38 H38            3.1150     4.8693    -0.1998 H       
  39 H39            5.9829     2.3310     1.7171 H       
  40 H40            5.1133     4.6319    -1.7911 H       
  41 H41            7.4263     5.4700    -1.8034 H       
  42 H42            9.0098     4.7480    -0.0644 H       
  43 H43            8.2911     3.1820     1.6917 H       
  44 H44           -1.8287     1.7514    -1.1187 H       
  45 H45           -0.8183     3.2076    -0.9556 H       
  46 H46           -0.3339     1.9088    -2.0723 H       
@<TRIPOS>BOND
   1    1    2 1
   2    1   11 1
   3    1   26 1
   4    1    6 1
   5    2    3 1
   6    2   27 1
   7    3    4 1
   8    3   28 1
   9    3   29 1
  10    4    5 1
  11    4   30 1
  12    4   31 1
  13    5    6 1
  14    5    7 1
  15    6   10 2
  16    7    8 1
  17    7   32 1
  18    7   33 1
  19    8    9 1
  20    8   34 1
  21    8   35 1
  22    9   10 am
  23    9   13 2
  24    9   14 2
  25   11   12 ar
  26   11   15 ar
  27   12   18 ar
  28   12   36 1
  29   15   16 ar
  30   15   37 1
  31   16   17 ar
  32   16   38 1
  33   17   18 ar
  34   17   19 1
  35   18   25 1
  36   19   20 ar
  37   19   21 ar
  38   20   24 ar
  39   20   39 1
  40   21   22 ar
  41   21   40 1
  42   22   23 ar
  43   22   41 1
  44   23   24 ar
  45   23   42 1
  46   24   43 1
  47   26   44 1
  48   26   45 1
  49   26   46 1

#	End of record

