#	Name: ASD08170396
#	Creating user name:	WinNT
#	Creation time:	15. 06. 2019 21:17

#	Modifying user name:	WinNT
#	Modification time:	15. 06. 2019 21:17

#	Program:	/corina/corina34_cracker 3.40 0067  02.08.2006

@<TRIPOS>MOLECULE
ASD08170396
  53   56    0    0    0
SMALL
NO_CHARGES


@<TRIPOS>ATOM
   1 N1            -0.0156     1.2977     0.0092 N.2     
   2 C2             0.0021    -0.0041     0.0020 C.2     
   3 S3             1.6908    -0.5171    -0.0169 S.3     
   4 C4             2.1707     1.1813    -0.0123 C.2     
   5 N5             1.0934     1.8979     0.0018 N.2     
   6 C6             7.9337     3.2712     4.7980 C.2     
   7 S7             7.6673     4.6849     5.8203 S.3     
   8 C8             8.3456     3.7866     7.1798 C.2     
   9 N9             8.6755     2.6039     6.7469 N.2     
  10 N10            8.4586     2.3439     5.5322 N.2     
  11 C11            9.1994     3.9606    10.8049 C.ar    
  12 C12           -3.5295    -1.1993     0.0288 C.ar    
  13 C13            9.7541     3.1378    11.7873 C.ar    
  14 C14           -4.8154    -0.6553     0.0435 C.ar    
  15 C15            9.9044     3.6102    13.0740 C.ar    
  16 C16            9.5061     4.8979    13.3930 C.ar    
  17 C17            8.9552     5.7189    12.4228 C.ar    
  18 C18            8.8055     5.2599    11.1312 C.ar    
  19 C19           -5.9136    -1.4892     0.0496 C.ar    
  20 C20           -5.7431    -2.8638     0.0416 C.ar    
  21 C21           -4.4699    -3.4093     0.0270 C.ar    
  22 C22           -3.3641    -2.5857     0.0145 C.ar    
  23 Cl23           9.6976     5.4851    15.0154 Cl      
  24 Cl24          -7.1305    -3.9071     0.0504 Cl      
  25 C25            3.5841     1.7040    -0.0223 C.3     
  26 C26            4.0753     1.8733     1.4168 C.3     
  27 S27            5.7767     2.5025     1.4048 S.3     
  28 C28            6.1752     2.6349     3.1696 C.3     
  29 C29            7.6026     3.1613     3.3320 C.3     
  30 N30           -1.1087    -0.8393     0.0081 N.am    
  31 C31           -2.3487    -0.3114     0.0223 C.2     
  32 O32           -2.4955     0.8954     0.0297 O.2     
  33 N33            8.4997     4.2570     8.4783 N.am    
  34 C34            9.0355     3.4605     9.4244 C.2     
  35 O35            9.3838     2.3306     9.1419 O.2     
  36 H36           10.0643     2.1333    11.5400 H       
  37 H37           -4.9497     0.4163     0.0505 H       
  38 H38           10.3333     2.9747    13.8347 H       
  39 H39            8.6465     6.7220    12.6775 H       
  40 H40            8.3761     5.9010    10.3755 H       
  41 H41           -6.9088    -1.0697     0.0609 H       
  42 H42           -4.3432    -4.4818     0.0208 H       
  43 H43           -2.3719    -3.0122     0.0029 H       
  44 H44            4.2289     0.9979    -0.5456 H       
  45 H45            3.6116     2.6674    -0.5313 H       
  46 H46            3.4305     2.5794     1.9401 H       
  47 H47            4.0478     0.9099     1.9259 H       
  48 H48            5.4778     3.3218     3.6490 H       
  49 H49            6.0951     1.6524     3.6348 H       
  50 H50            7.6826     4.1437     2.8667 H       
  51 H51            8.2999     2.4743     2.8525 H       
  52 H52           -0.9915    -1.8022     0.0022 H       
  53 H53            8.2218     5.1586     8.7038 H       
@<TRIPOS>BOND
   1    1    2 2
   2    1    5 1
   3    2    3 1
   4    2   30 1
   5    3    4 1
   6    4    5 2
   7    4   25 1
   8    6    7 1
   9    6   29 1
  10    6   10 2
  11    7    8 1
  12    8    9 2
  13    8   33 1
  14    9   10 1
  15   11   13 ar
  16   11   34 1
  17   11   18 ar
  18   12   14 ar
  19   12   31 1
  20   12   22 ar
  21   13   15 ar
  22   13   36 1
  23   14   19 ar
  24   14   37 1
  25   15   16 ar
  26   15   38 1
  27   16   17 ar
  28   16   23 1
  29   17   18 ar
  30   17   39 1
  31   18   40 1
  32   19   20 ar
  33   19   41 1
  34   20   21 ar
  35   20   24 1
  36   21   22 ar
  37   21   42 1
  38   22   43 1
  39   25   26 1
  40   25   44 1
  41   25   45 1
  42   26   27 1
  43   26   46 1
  44   26   47 1
  45   27   28 1
  46   28   29 1
  47   28   48 1
  48   28   49 1
  49   29   50 1
  50   29   51 1
  51   30   31 am
  52   30   52 1
  53   31   32 2
  54   33   34 am
  55   33   53 1
  56   34   35 2

#	End of record

