#	Name: ASD03240556
#	Creating user name:	WinNT
#	Creation time:	15. 06. 2019 20:35

#	Modifying user name:	WinNT
#	Modification time:	15. 06. 2019 20:35

#	Program:	/corina/corina34_cracker 3.40 0067  02.08.2006

@<TRIPOS>MOLECULE
ASD03240556
  65   72    0    0    0
SMALL
NO_CHARGES


@<TRIPOS>ATOM
   1 C1            -0.0166     1.3755     0.0096 C.ar    
   2 C2             0.0021    -0.0041     0.0020 C.ar    
   3 N3             1.1422    -0.6683    -0.0058 N.ar    
   4 C4             2.3145    -0.0481    -0.0058 C.ar    
   5 C5             2.3702     1.3442    -0.0124 C.ar    
   6 C6             1.1860     2.0698     0.0018 C.ar    
   7 N7             3.4820    -0.8058     0.0220 N.pl3   
   8 C8             4.3594    -0.7190     1.0995 C.ar    
   9 C9             4.9951     0.4896     1.4033 C.ar    
  10 C10            4.7630     1.6839     0.5616 C.2     
  11 N11            3.5939     2.0276    -0.0512 N.pl3   
  12 C12            4.6058    -1.8386     1.8829 C.ar    
  13 C13            5.4657    -1.7529     2.9611 C.ar    
  14 C14            6.0864    -0.5547     3.2697 C.ar    
  15 C15            5.8561     0.5662     2.4977 C.ar    
  16 N16            5.6742     2.5948     0.2845 N.2     
  17 C17            5.1435     3.5404    -0.5063 C.2     
  18 C18            3.8221     3.2038    -0.7369 C.2     
  19 C19            2.8486     3.9531    -1.5543 C.ar    
  20 C20            2.7488     5.3411    -1.4301 C.ar    
  21 C21            2.0263     3.2786    -2.4603 C.ar    
  22 C22            1.1187     3.9855    -3.2211 C.ar    
  23 C23            1.0213     5.3595    -3.0886 C.ar    
  24 C24            1.8365     6.0349    -2.1973 C.ar    
  25 C25            5.8467     4.7311    -1.0361 C.ar    
  26 C26            0.0274     6.1248    -3.9238 C.3     
  27 N27           -1.0508     5.2759    -4.4478 N.3     
  28 C28           -0.4745     7.4156    -3.2552 C.3     
  29 C29           -0.3884     8.0741    -4.6422 C.3     
  30 C30            0.6794     7.0209    -4.9900 C.3     
  31 C31            6.8118     5.3717    -0.2707 C.ar    
  32 C32            7.4495     6.4970    -0.8206 C.ar    
  33 C33            7.0866     6.9294    -2.1210 C.ar    
  34 N34            6.1482     6.2710    -2.8105 N.ar    
  35 C35            5.5464     5.2180    -2.3198 C.ar    
  36 C36            8.4360     7.1974    -0.1056 C.ar    
  37 C37            9.0323     8.2835    -0.6696 C.ar    
  38 C38            8.6771     8.7101    -1.9477 C.ar    
  39 C39            7.7261     8.0551    -2.6683 C.ar    
  40 H40           -0.9556     1.9091     0.0170 H       
  41 H41           -0.9306    -0.5486     0.0028 H       
  42 H42            1.2002     3.1497     0.0064 H       
  43 H43            3.6865    -1.4000    -0.7170 H       
  44 H44            4.1248    -2.7770     1.6495 H       
  45 H45            5.6546    -2.6265     3.5674 H       
  46 H46            6.7530    -0.4966     4.1173 H       
  47 H47            6.3416     1.4999     2.7404 H       
  48 H48            3.3841     5.8694    -0.7347 H       
  49 H49            2.1015     2.2063    -2.5650 H       
  50 H50            0.4827     3.4654    -3.9221 H       
  51 H51            1.7549     7.1073    -2.0989 H       
  52 H52           -0.6773     4.4542    -4.8988 H       
  53 H53           -1.7001     5.0240    -3.7176 H       
  54 H54           -1.4913     7.3407    -2.8698 H       
  55 H55            0.2246     7.8320    -2.5300 H       
  56 H56           -1.3020     7.9778    -5.2288 H       
  57 H57           -0.0051     9.0942    -4.6182 H       
  58 H58            1.6944     7.3289    -4.7393 H       
  59 H59            0.5929     6.6296    -6.0037 H       
  60 H60            7.0646     5.0163     0.7173 H       
  61 H61            4.7948     4.7166    -2.9114 H       
  62 H62            8.7191     6.8761     0.8859 H       
  63 H63            9.7901     8.8215    -0.1194 H       
  64 H64            9.1646     9.5746    -2.3737 H       
  65 H65            7.4632     8.3997    -3.6575 H       
@<TRIPOS>BOND
   1    1    2 ar
   2    1    6 ar
   3    1   40 1
   4    2    3 ar
   5    2   41 1
   6    3    4 ar
   7    4    5 ar
   8    4    7 1
   9    5    6 ar
  10    5   11 1
  11    6   42 1
  12    7    8 1
  13    7   43 1
  14    8    9 ar
  15    8   12 ar
  16    9   10 1
  17    9   15 ar
  18   10   11 1
  19   10   16 2
  20   11   18 1
  21   12   13 ar
  22   12   44 1
  23   13   14 ar
  24   13   45 1
  25   14   15 ar
  26   14   46 1
  27   15   47 1
  28   16   17 1
  29   17   18 2
  30   17   25 1
  31   18   19 1
  32   19   20 ar
  33   19   21 ar
  34   20   24 ar
  35   20   48 1
  36   21   22 ar
  37   21   49 1
  38   22   23 ar
  39   22   50 1
  40   23   24 ar
  41   23   26 1
  42   24   51 1
  43   25   31 ar
  44   25   35 ar
  45   26   27 1
  46   26   28 1
  47   26   30 1
  48   27   52 1
  49   27   53 1
  50   28   29 1
  51   28   54 1
  52   28   55 1
  53   29   30 1
  54   29   56 1
  55   29   57 1
  56   30   58 1
  57   30   59 1
  58   31   32 ar
  59   31   60 1
  60   32   33 ar
  61   32   36 ar
  62   33   34 ar
  63   33   39 ar
  64   34   35 ar
  65   35   61 1
  66   36   37 ar
  67   36   62 1
  68   37   38 ar
  69   37   63 1
  70   38   39 ar
  71   38   64 1
  72   39   65 1

#	End of record

