#	Name: ASD00190045
#	Creating user name:	WinNT
#	Creation time:	15. 06. 2019 18:33

#	Modifying user name:	WinNT
#	Modification time:	15. 06. 2019 18:33

#	Program:	/corina/corina34_cracker 3.40 0067  02.08.2006

@<TRIPOS>MOLECULE
ASD00190045
  49   54    0    0    0
SMALL
NO_CHARGES


@<TRIPOS>ATOM
   1 C1            -0.0154     1.3889     0.0329 C.ar    
   2 C2             0.0026    -0.0011     0.0114 C.ar    
   3 C3             1.1801    -0.6877    -0.0102 C.ar    
   4 C4             2.3964     0.0123    -0.0114 C.ar    
   5 C5             2.3718     1.4268     0.0100 C.ar    
   6 C6             1.1497     2.1010     0.0324 C.ar    
   7 N7             3.5674    -0.6415    -0.0320 N.ar    
   8 C8             4.7273    -0.0214    -0.0334 C.ar    
   9 C9             4.8189     1.3796    -0.0128 C.ar    
  10 C10            3.6478     2.1440     0.0085 C.ar    
  11 N11            5.8587     2.2833    -0.0080 N.pl3   
  12 C12            5.3154     3.5207     0.0160 C.2     
  13 N13            4.0133     3.4342     0.0255 N.2     
  14 N14            5.8931    -0.7726    -0.0555 N.pl3   
  15 C15            5.8289    -2.1658     0.0437 C.ar    
  16 C16            6.7405    -2.9549    -0.6458 C.ar    
  17 C17            6.6753    -4.3311    -0.5465 C.ar    
  18 C18            5.7028    -4.9243     0.2385 C.ar    
  19 C19            4.7921    -4.1402     0.9275 C.ar    
  20 C20            4.8569    -2.7628     0.8364 C.ar    
  21 Cl21           3.5728    -4.8881     1.9112 Cl      
  22 Cl22           5.6233    -6.6542     0.3599 Cl      
  23 C23            7.4158     4.6306     0.8170 C.3     
  24 C24            6.0973     4.8089     0.0299 C.3     
  25 C25            6.5482     5.1867    -1.4141 C.3     
  26 C26            8.5391     4.9175    -0.2257 C.3     
  27 C27            8.4915     3.6981    -1.1963 C.3     
  28 C28            7.1730     3.8764    -1.9833 C.3     
  29 C29            7.8446     6.0160    -1.1056 C.3     
  30 H30           -0.9608     1.9110     0.0457 H       
  31 H31           -0.9304    -0.5451     0.0122 H       
  32 H32            1.1769    -1.7676    -0.0261 H       
  33 H33            1.1258     3.1806     0.0492 H       
  34 H34            6.8051     2.0709    -0.0195 H       
  35 H35            6.7528    -0.3315    -0.1396 H       
  36 H36            7.4996    -2.4928    -1.2595 H       
  37 H37            7.3841    -4.9448    -1.0826 H       
  38 H38            4.1469    -2.1514     1.3735 H       
  39 H39            7.4678     5.3456     1.6380 H       
  40 H40            7.4984     3.6112     1.1938 H       
  41 H41            5.5012     5.6116     0.4641 H       
  42 H42            5.7942     5.6656    -2.0388 H       
  43 H43            9.5189     5.1619     0.1846 H       
  44 H44            9.3446     3.7186    -1.8744 H       
  45 H45            8.4748     2.7648    -0.6334 H       
  46 H46            6.5081     3.0308    -1.8074 H       
  47 H47            7.3779     3.9846    -3.0484 H       
  48 H48            8.4136     6.2363    -2.0088 H       
  49 H49            7.6262     6.9188    -0.5353 H       
@<TRIPOS>BOND
   1    1    2 ar
   2    1    6 ar
   3    1   30 1
   4    2    3 ar
   5    2   31 1
   6    3    4 ar
   7    3   32 1
   8    4    5 ar
   9    4    7 ar
  10    5    6 ar
  11    5   10 ar
  12    6   33 1
  13    7    8 ar
  14    8    9 ar
  15    8   14 1
  16    9   10 ar
  17    9   11 1
  18   10   13 1
  19   11   12 1
  20   11   34 1
  21   12   13 2
  22   12   24 1
  23   14   15 1
  24   14   35 1
  25   15   16 ar
  26   15   20 ar
  27   16   17 ar
  28   16   36 1
  29   17   18 ar
  30   17   37 1
  31   18   19 ar
  32   18   22 1
  33   19   20 ar
  34   19   21 1
  35   20   38 1
  36   23   24 1
  37   23   26 1
  38   23   39 1
  39   23   40 1
  40   24   25 1
  41   24   41 1
  42   25   28 1
  43   25   29 1
  44   25   42 1
  45   26   27 1
  46   26   29 1
  47   26   43 1
  48   27   28 1
  49   27   44 1
  50   27   45 1
  51   28   46 1
  52   28   47 1
  53   29   48 1
  54   29   49 1

#	End of record

