#	Name: ASD01914824
#	Creating user name:	WinNT
#	Creation time:	15. 06. 2019 20:04

#	Modifying user name:	WinNT
#	Modification time:	15. 06. 2019 20:04

#	Program:	/corina/corina34_cracker 3.40 0067  02.08.2006

@<TRIPOS>MOLECULE
ASD01914824
  37   38    0    0    0
SMALL
NO_CHARGES


@<TRIPOS>ATOM
   1 C1             0.6678     0.8966     0.8061 C.3     
   2 C2            -0.0606     0.0049    -0.1580 C.2     
   3 C3             0.3144    -0.1584    -1.4073 C.2     
   4 C4             1.5177     0.5288    -1.9901 C.3     
   5 C5             1.9368     1.6908    -1.0860 C.3     
   6 N6             2.0122     1.2013     0.3002 N.3     
   7 C7             2.6924     2.1739     1.1658 C.3     
   8 N8            -3.2398    -1.2120     1.1363 N.pl3   
   9 N9            -2.3561    -0.1795     0.7974 N.2     
  10 C10           -1.2548    -0.7237     0.3204 C.2     
  11 C11           -1.4175    -2.1242     0.3468 C.2     
  12 C12           -2.6419    -2.3890     0.8511 C.2     
  13 C13           -0.4049    -3.1440    -0.1068 C.3     
  14 C14            0.5880    -3.4152     1.0252 C.3     
  15 C15            1.6161    -4.4505     0.5648 C.3     
  16 C16            2.6090    -4.7217     1.6968 C.3     
  17 H17            0.1102     1.8248     0.9312 H       
  18 H18            0.7501     0.3949     1.7703 H       
  19 H19           -0.2656    -0.8132    -2.0408 H       
  20 H20            2.3390    -0.1835    -2.0694 H       
  21 H21            1.2727     0.9105    -2.9813 H       
  22 H22            2.9132     2.0626    -1.3966 H       
  23 H23            1.1992     2.4906    -1.1523 H       
  24 H24            2.7821     1.7645     2.1720 H       
  25 H25            3.6858     2.3817     0.7682 H       
  26 H26            2.1141     3.0972     1.1994 H       
  27 H27           -4.1262    -1.1010     1.5144 H       
  28 H28           -3.0683    -3.3700     1.0000 H       
  29 H29           -0.9154    -4.0699    -0.3719 H       
  30 H30            0.1305    -2.7626    -0.9762 H       
  31 H31            1.0985    -2.4893     1.2903 H       
  32 H32            0.0525    -3.7966     1.8946 H       
  33 H33            1.1056    -5.3764     0.2997 H       
  34 H34            2.1515    -4.0691    -0.3046 H       
  35 H35            3.3414    -5.4593     1.3687 H       
  36 H36            3.1195    -3.7958     1.9619 H       
  37 H37            2.0735    -5.1031     2.5662 H       
@<TRIPOS>BOND
   1    1    2 1
   2    1    6 1
   3    1   17 1
   4    1   18 1
   5    2    3 2
   6    2   10 1
   7    3    4 1
   8    3   19 1
   9    4    5 1
  10    4   20 1
  11    4   21 1
  12    5    6 1
  13    5   22 1
  14    5   23 1
  15    6    7 1
  16    7   24 1
  17    7   25 1
  18    7   26 1
  19    8    9 1
  20    8   12 1
  21    8   27 1
  22    9   10 2
  23   10   11 1
  24   11   12 2
  25   11   13 1
  26   12   28 1
  27   13   14 1
  28   13   29 1
  29   13   30 1
  30   14   15 1
  31   14   31 1
  32   14   32 1
  33   15   16 1
  34   15   33 1
  35   15   34 1
  36   16   35 1
  37   16   36 1
  38   16   37 1

#	End of record

