#	Name: ASD01917671
#	Creating user name:	WinNT
#	Creation time:	15. 06. 2019 20:09

#	Modifying user name:	WinNT
#	Modification time:	15. 06. 2019 20:09

#	Program:	/corina/corina34_cracker 3.40 0067  02.08.2006

@<TRIPOS>MOLECULE
ASD01917671
  42   44    0    0    0
SMALL
NO_CHARGES


@<TRIPOS>ATOM
   1 C1            -0.0140     1.4933     0.0244 C.3     
   2 C2             0.0203    -0.0166     0.0080 C.2     
   3 C3             2.4637    -0.1866    -0.4920 C.3     
   4 C4             2.3204     1.2800    -0.9134 C.3     
   5 N5             1.3861     1.9568    -0.0010 N.am    
   6 C6            -1.0005    -0.8695     0.2157 C.2     
   7 C7            -0.4998    -2.1722     0.0955 C.2     
   8 N8             0.7800    -2.0966    -0.1741 N.2     
   9 N9             1.1347    -0.7461    -0.2303 N.pl3   
  10 C10            1.7966     2.9698     0.7875 C.2     
  11 O11            2.9746     3.2663     0.8321 O.2     
  12 C12            0.8142     3.7205     1.5982 C.ar    
  13 C13           -1.2962    -3.4422     0.2501 C.3     
  14 C14            1.1696     4.2057     2.8577 C.ar    
  15 C15           -0.4707     3.9520     1.1049 C.ar    
  16 C16           -1.3827     4.6532     1.8665 C.ar    
  17 C17           -1.0257     5.1269     3.1165 C.ar    
  18 C18            0.2481     4.9053     3.6091 C.ar    
  19 C19           -2.1616    -3.6561    -0.9934 C.3     
  20 C20           -0.3413    -4.6259     0.4166 C.3     
  21 C21           -2.1944    -3.3339     1.4840 C.3     
  22 H22           -0.5440     1.8628    -0.8534 H       
  23 H23           -0.5055     1.8443     0.9318 H       
  24 H24            2.9447    -0.7497    -1.2918 H       
  25 H25            3.0691    -0.2480     0.4123 H       
  26 H26            3.2934     1.7690    -0.8667 H       
  27 H27            1.9353     1.3302    -1.9319 H       
  28 H28           -2.0223    -0.5980     0.4362 H       
  29 H29            2.1635     4.0334     3.2434 H       
  30 H30           -0.7504     3.5834     0.1290 H       
  31 H31           -2.3773     4.8330     1.4860 H       
  32 H32           -1.7431     5.6758     3.7084 H       
  33 H33            0.5218     5.2813     4.5839 H       
  34 H34           -1.5217    -3.7332    -1.8725 H       
  35 H35           -2.7376    -4.5746    -0.8816 H       
  36 H36           -2.8419    -2.8128    -1.1121 H       
  37 H37            0.2752    -4.4735     1.3025 H       
  38 H38           -0.9173    -5.5445     0.5285 H       
  39 H39            0.2986    -4.7030    -0.4624 H       
  40 H40           -2.8747    -2.4906     1.3653 H       
  41 H41           -2.7704    -4.2525     1.5958 H       
  42 H42           -1.5779    -3.1815     2.3699 H       
@<TRIPOS>BOND
   1    1    2 1
   2    1    5 1
   3    1   22 1
   4    1   23 1
   5    2    6 2
   6    2    9 1
   7    3    4 1
   8    3    9 1
   9    3   24 1
  10    3   25 1
  11    4    5 1
  12    4   26 1
  13    4   27 1
  14    5   10 am
  15    6    7 1
  16    6   28 1
  17    7    8 2
  18    7   13 1
  19    8    9 1
  20   10   11 2
  21   10   12 1
  22   12   15 ar
  23   12   14 ar
  24   13   19 1
  25   13   20 1
  26   13   21 1
  27   14   18 ar
  28   14   29 1
  29   15   16 ar
  30   15   30 1
  31   16   17 ar
  32   16   31 1
  33   17   18 ar
  34   17   32 1
  35   18   33 1
  36   19   34 1
  37   19   35 1
  38   19   36 1
  39   20   37 1
  40   20   38 1
  41   20   39 1
  42   21   40 1
  43   21   41 1
  44   21   42 1

#	End of record

