#	Name: ASD05143013
#	Creating user name:	WinNT
#	Creation time:	15. 06. 2019 20:57

#	Modifying user name:	WinNT
#	Modification time:	15. 06. 2019 20:57

#	Program:	/corina/corina34_cracker 3.40 0067  02.08.2006

@<TRIPOS>MOLECULE
ASD05143013
 145  148    0    0    0
SMALL
NO_CHARGES


@<TRIPOS>ATOM
   1 C1            -1.9681     2.7159     4.9853 C.2     
   2 C2            -1.4478     1.6055     5.8613 C.3     
   3 N3            -1.1111     3.4530     4.2514 N.am    
   4 O4            -3.1585     2.9430     4.9369 O.2     
   5 C5            -1.6168     4.5325     3.3998 C.3     
   6 C6            -2.5865     3.9552     2.3666 C.3     
   7 C7            -2.3351     5.5485     4.2501 C.2     
   8 C8            -1.8290     3.0175     1.4243 C.3     
   9 C9            -2.7986     2.4403     0.3911 C.3     
  10 N10           -2.0733     1.5424    -0.5111 N.pl3   
  11 C11           -2.7417     0.9026    -1.5280 C.2     
  12 N12           -2.0610     0.0600    -2.3747 N.pl3   
  13 N13           -4.0207     1.0950    -1.6894 N.2     
  14 O14           -2.7367     5.2414     5.3525 O.2     
  15 N15           -2.5311     6.7983     3.7854 N.am    
  16 C16           -3.2293     7.7860     4.6120 C.3     
  17 C17           -2.2115     8.7526     5.2206 C.3     
  18 C18           -1.0420     7.9600     5.8077 C.3     
  19 C19           -0.0028     7.7322     4.7405 C.2     
  20 O20           -0.3268     7.3617     3.6320 O.2     
  21 N21            1.3111     7.9513     5.0444 N.am    
  22 C22            2.2675     7.6981     3.9427 C.3     
  23 C23            2.4189     8.9798     3.1210 C.3     
  24 C24            2.9416     8.6317     1.7258 C.3     
  25 C25            3.9263     9.7087     1.2659 C.3     
  26 N26            3.7571     9.9204    -0.1857 N.am    
  27 C27            5.3361     9.2582     1.5496 C.2     
  28 N28            5.8435     9.3746     2.7928 N.am    
  29 O29            6.0142     8.7909     0.6592 O.2     
  30 C30            2.9521    10.9521    -0.5600 C.2     
  31 O31            2.4194    11.6501     0.2767 O.2     
  32 C32            2.7316    11.2166    -2.0271 C.3     
  33 N33            1.5473    12.0935    -2.1751 N.am    
  34 C34            3.9618    11.9112    -2.6146 C.3     
  35 C35            0.4131    11.4750    -2.6196 C.2     
  36 O36            0.4146    10.2886    -2.8717 O.2     
  37 C37           -0.8400    12.2946    -2.7902 C.3     
  38 N38           -2.0123    11.4068    -2.6582 N.am    
  39 C39           -0.8941    13.3789    -1.7121 C.3     
  40 C40           -3.0270    11.8512    -1.8667 C.2     
  41 O41           -2.9450    12.9231    -1.3052 O.2     
  42 C42           -4.2537    10.9922    -1.6987 C.3     
  43 C43            3.7893    12.0636    -4.1039 C.2     
  44 C44            3.0880    13.1493    -4.7933 C.ar    
  45 C45            3.1884    12.8659    -6.1675 C.ar    
  46 N46            3.8997    11.6934    -6.2896 N.pl3   
  47 C47            4.2542    11.2332    -5.0507 C.2     
  48 C48            2.4107    14.2929    -4.3653 C.ar    
  49 C49            1.8481    15.1320    -5.2851 C.ar    
  50 C50            1.9440    14.8566    -6.6425 C.ar    
  51 C51            2.6082    13.7345    -7.0865 C.ar    
  52 N52           -4.7119    11.0888    -0.2939 N.am    
  53 C53           -3.9110     9.5379    -2.0280 C.3     
  54 C54           -5.1562     8.6945    -1.9330 C.ar    
  55 C55           -6.1539     8.8245    -2.8824 C.ar    
  56 C56           -7.2968     8.0494    -2.7948 C.ar    
  57 C57           -7.4409     7.1459    -1.7591 C.ar    
  58 C58           -6.4433     7.0164    -0.8105 C.ar    
  59 C59           -5.2992     7.7866    -0.9004 C.ar    
  60 Cl60          -5.9724     9.9601    -4.1828 Cl      
  61 C61           -4.2047     8.5556     3.7589 C.2     
  62 N62           -3.7265     9.3631     2.7728 N.am    
  63 O63           -5.3986     8.4566     3.9480 O.2     
  64 C64           -4.7293    10.0919     1.9707 C.3     
  65 C65           -4.8255    11.5380     2.4609 C.3     
  66 C66           -4.3014    10.0759     0.5258 C.2     
  67 C67           -5.3636    11.5563     3.8931 C.3     
  68 N68           -5.4559    12.9448     4.3638 N.3     
  69 O69           -3.6052     9.1796     0.0983 O.2     
  70 C70           -0.7635    12.7323    -0.3316 C.3     
  71 C71           -0.9422    13.7994     0.7503 C.3     
  72 N72           -0.8172    13.1803     2.0721 N.pl3   
  73 C73           -0.9420    13.9484     3.2055 C.2     
  74 N74           -0.8247    13.3674     4.4461 N.pl3   
  75 N75           -1.1715    15.2274     3.1040 N.2     
  76 H76           -0.3630     1.5496     5.7712 H       
  77 H77           -1.7165     1.8049     6.8987 H       
  78 H78           -1.8878     0.6588     5.5476 H       
  79 H79           -0.1594     3.2688     4.2870 H       
  80 H80           -0.7829     5.0120     2.8873 H       
  81 H81           -3.3731     3.3996     2.8771 H       
  82 H82           -3.0303     4.7677     1.7912 H       
  83 H83           -1.0424     3.5731     0.9138 H       
  84 H84           -1.3851     2.2051     1.9997 H       
  85 H85           -3.5852     1.8847     0.9017 H       
  86 H86           -3.2424     3.2527    -0.1842 H       
  87 H87           -1.1215     1.3993    -0.3909 H       
  88 H88           -1.1092    -0.0831    -2.2545 H       
  89 H89           -2.5326    -0.3914    -3.0921 H       
  90 H90           -4.4923     0.6436    -2.4069 H       
  91 H91           -2.2098     7.0439     2.9037 H       
  92 H92           -3.7683     7.2758     5.4102 H       
  93 H93           -1.8420     9.4258     4.4470 H       
  94 H94           -2.6890     9.3336     6.0097 H       
  95 H95           -0.6001     8.5208     6.6313 H       
  96 H96           -1.4024     6.9990     6.1748 H       
  97 H97            1.5975     8.2521     5.9209 H       
  98 H98            3.2347     7.4126     4.3564 H       
  99 H99            1.8889     6.8983     3.3063 H       
 100 H100           1.4504     9.4721     3.0339 H       
 101 H101           3.1231     9.6481     3.6166 H       
 102 H102           3.4474     7.6668     1.7576 H       
 103 H103           2.1064     8.5811     1.0272 H       
 104 H104           3.7242    10.6390     1.7968 H       
 105 H105           4.1965     9.3534    -0.8386 H       
 106 H106           5.3012     9.7484     3.5049 H       
 107 H107           6.7509     9.0847     2.9754 H       
 108 H108           2.5568    10.2745    -2.5467 H       
 109 H109           1.5751    13.0413    -1.9708 H       
 110 H110           4.0756    12.8951    -2.1594 H       
 111 H111           4.8493    11.3119    -2.4110 H       
 112 H112          -0.8419    12.7578    -3.7770 H       
 113 H113          -2.0571    10.5506    -3.1119 H       
 114 H114          -0.0751    14.0823    -1.8628 H       
 115 H115          -1.8445    13.9086    -1.7768 H       
 116 H116          -5.0410    11.3447    -2.3651 H       
 117 H117           4.1199    11.2601    -7.1290 H       
 118 H118           4.8177    10.3314    -4.8621 H       
 119 H119           2.3315    14.5131    -3.3110 H       
 120 H120           1.3243    16.0164    -4.9537 H       
 121 H121           1.4938    15.5292    -7.3575 H       
 122 H122           2.6776    13.5292    -8.1446 H       
 123 H123          -5.2647    11.8204     0.0223 H       
 124 H124          -3.5088     9.4795    -3.0394 H       
 125 H125          -3.1683     9.1704    -1.3199 H       
 126 H126          -8.0762     8.1507    -3.5355 H       
 127 H127          -8.3330     6.5411    -1.6905 H       
 128 H128          -6.5565     6.3104    -0.0011 H       
 129 H129          -4.5202     7.6848    -0.1594 H       
 130 H130          -2.7754     9.4553     2.6058 H       
 131 H131          -5.7002     9.6068     2.0714 H       
 132 H132          -3.8365    11.9958     2.4385 H       
 133 H133          -5.4996    12.0975     1.8123 H       
 134 H134          -6.3526    11.0986     3.9154 H       
 135 H135          -4.6895    10.9968     4.5416 H       
 136 H136          -5.8091    12.9837     5.3081 H       
 137 H137          -4.5640    13.4110     4.2918 H       
 138 H138          -1.5294    11.9655    -0.2156 H       
 139 H139           0.2227    12.2784    -0.2348 H       
 140 H140          -0.1763    14.5662     0.6343 H       
 141 H141          -1.9285    14.2533     0.6535 H       
 142 H142          -0.6464    12.2284     2.1477 H       
 143 H143          -0.6539    12.4156     4.5216 H       
 144 H144          -0.9127    13.9094     5.2457 H       
 145 H145          -1.2595    15.7694     3.9037 H       
@<TRIPOS>BOND
   1    1    2 1
   2    1    3 am
   3    1    4 2
   4    2   76 1
   5    2   77 1
   6    2   78 1
   7    3    5 1
   8    3   79 1
   9    5    6 1
  10    5    7 1
  11    5   80 1
  12    6    8 1
  13    6   81 1
  14    6   82 1
  15    7   14 2
  16    7   15 am
  17    8    9 1
  18    8   83 1
  19    8   84 1
  20    9   10 1
  21    9   85 1
  22    9   86 1
  23   10   11 1
  24   10   87 1
  25   11   12 1
  26   11   13 2
  27   12   88 1
  28   12   89 1
  29   13   90 1
  30   15   16 1
  31   15   91 1
  32   16   17 1
  33   16   61 1
  34   16   92 1
  35   17   18 1
  36   17   93 1
  37   17   94 1
  38   18   19 1
  39   18   95 1
  40   18   96 1
  41   19   20 2
  42   19   21 am
  43   21   22 1
  44   21   97 1
  45   22   23 1
  46   22   98 1
  47   22   99 1
  48   23   24 1
  49   23  100 1
  50   23  101 1
  51   24   25 1
  52   24  102 1
  53   24  103 1
  54   25   26 1
  55   25   27 1
  56   25  104 1
  57   26   30 am
  58   26  105 1
  59   27   28 am
  60   27   29 2
  61   28  106 1
  62   28  107 1
  63   30   31 2
  64   30   32 1
  65   32   33 1
  66   32   34 1
  67   32  108 1
  68   33   35 am
  69   33  109 1
  70   34   43 1
  71   34  110 1
  72   34  111 1
  73   35   36 2
  74   35   37 1
  75   37   38 1
  76   37   39 1
  77   37  112 1
  78   38   40 am
  79   38  113 1
  80   39   70 1
  81   39  114 1
  82   39  115 1
  83   40   41 2
  84   40   42 1
  85   42   52 1
  86   42   53 1
  87   42  116 1
  88   43   44 1
  89   43   47 2
  90   44   45 ar
  91   44   48 ar
  92   45   46 1
  93   45   51 ar
  94   46   47 1
  95   46  117 1
  96   47  118 1
  97   48   49 ar
  98   48  119 1
  99   49   50 ar
 100   49  120 1
 101   50   51 ar
 102   50  121 1
 103   51  122 1
 104   52   66 am
 105   52  123 1
 106   53   54 1
 107   53  124 1
 108   53  125 1
 109   54   55 ar
 110   54   59 ar
 111   55   56 ar
 112   55   60 1
 113   56   57 ar
 114   56  126 1
 115   57   58 ar
 116   57  127 1
 117   58   59 ar
 118   58  128 1
 119   59  129 1
 120   61   62 am
 121   61   63 2
 122   62   64 1
 123   62  130 1
 124   64   65 1
 125   64   66 1
 126   64  131 1
 127   65   67 1
 128   65  132 1
 129   65  133 1
 130   66   69 2
 131   67   68 1
 132   67  134 1
 133   67  135 1
 134   68  136 1
 135   68  137 1
 136   70   71 1
 137   70  138 1
 138   70  139 1
 139   71   72 1
 140   71  140 1
 141   71  141 1
 142   72   73 1
 143   72  142 1
 144   73   74 1
 145   73   75 2
 146   74  143 1
 147   74  144 1
 148   75  145 1

#	End of record

