#	Name: ASD03430661
#	Creating user name:	WinNT
#	Creation time:	15. 06. 2019 20:41

#	Modifying user name:	WinNT
#	Modification time:	15. 06. 2019 20:41

#	Program:	/corina/corina34_cracker 3.40 0067  02.08.2006

@<TRIPOS>MOLECULE
ASD03430661
  47   52    0    0    0
SMALL
NO_CHARGES


@<TRIPOS>ATOM
   1 C1             0.2031     1.3098    -0.8946 C.ar    
   2 C2             0.1712    -0.0624    -0.7110 C.ar    
   3 C3             1.3459    -0.7840    -0.6676 C.ar    
   4 C4             2.5755    -0.1450    -0.7956 C.ar    
   5 C5             2.6044     1.2334    -0.9851 C.ar    
   6 C6             1.4277     1.9587    -1.0350 C.ar    
   7 O7             3.6062    -1.0325    -0.6950 O.3     
   8 C8             1.6394    -2.2519    -0.5112 C.3     
   9 C9             3.1112    -2.3641    -0.9329 C.3     
  10 C10            0.4884    -3.7631     0.7973 C.ar    
  11 C11            1.4214    -2.7332     0.8925 C.ar    
  12 C12            0.7480    -3.1049    -1.3675 C.2     
  13 N13            0.1155    -3.9556    -0.5351 N.am    
  14 O14            0.6222    -3.0411    -2.5722 O.2     
  15 C15            1.9346    -2.3640     2.1153 C.ar    
  16 C16            1.5252    -3.0170     3.2648 C.ar    
  17 C17            0.5998    -4.0409     3.1821 C.ar    
  18 C18            0.0825    -4.4148     1.9589 C.ar    
  19 O19           -0.7956     2.2372    -0.9790 O.3     
  20 C20           -0.1578     3.5097    -0.7619 C.3     
  21 O21            1.1952     3.2933    -1.2083 O.3     
  22 C22           -0.8507    -4.9647    -0.9763 C.3     
  23 C23           -2.2485    -4.4235    -0.8208 C.2     
  24 N24           -2.9086    -4.2515     0.3381 N.2     
  25 C25           -4.0885    -3.7647     0.0785 C.2     
  26 O26           -4.2105    -3.6145    -1.2472 O.3     
  27 C27           -3.0577    -4.0206    -1.8145 C.2     
  28 C28           -5.1430    -3.4269     1.1007 C.3     
  29 C29           -2.7398    -4.0307    -3.2876 C.3     
  30 F30           -2.9560    -5.3134    -3.8025 F       
  31 F31           -3.5669    -3.1169    -3.9494 F       
  32 F32           -1.4013    -3.6712    -3.4783 F       
  33 H33           -0.7763    -0.5690    -0.6012 H       
  34 H34            3.5520     1.7401    -1.0935 H       
  35 H35            3.1927    -2.6247    -1.9881 H       
  36 H36            3.6374    -3.0893    -0.3122 H       
  37 H37            2.6572    -1.5638     2.1778 H       
  38 H38            1.9278    -2.7275     4.2242 H       
  39 H39            0.2807    -4.5507     4.0791 H       
  40 H40           -0.6400    -5.2156     1.9023 H       
  41 H41           -0.6368     4.2851    -1.3598 H       
  42 H42           -0.1781     3.7728     0.2957 H       
  43 H43           -0.6695    -5.2078    -2.0232 H       
  44 H44           -0.7396    -5.8636    -0.3700 H       
  45 H45           -5.0203    -2.3923     1.4211 H       
  46 H46           -6.1314    -3.5558     0.6594 H       
  47 H47           -5.0402    -4.0884     1.9610 H       
@<TRIPOS>BOND
   1    1    2 ar
   2    1    6 ar
   3    1   19 1
   4    2    3 ar
   5    2   33 1
   6    3    4 ar
   7    3    8 1
   8    4    5 ar
   9    4    7 1
  10    5    6 ar
  11    5   34 1
  12    6   21 1
  13    7    9 1
  14    8    9 1
  15    8   11 1
  16    8   12 1
  17    9   35 1
  18    9   36 1
  19   10   11 ar
  20   10   13 1
  21   10   18 ar
  22   11   15 ar
  23   12   13 am
  24   12   14 2
  25   13   22 1
  26   15   16 ar
  27   15   37 1
  28   16   17 ar
  29   16   38 1
  30   17   18 ar
  31   17   39 1
  32   18   40 1
  33   19   20 1
  34   20   21 1
  35   20   41 1
  36   20   42 1
  37   22   23 1
  38   22   43 1
  39   22   44 1
  40   23   24 1
  41   23   27 2
  42   24   25 2
  43   25   26 1
  44   25   28 1
  45   26   27 1
  46   27   29 1
  47   28   45 1
  48   28   46 1
  49   28   47 1
  50   29   30 1
  51   29   31 1
  52   29   32 1

#	End of record

