#	Name: ASD02038381
#	Creating user name:	WinNT
#	Creation time:	15. 06. 2019 20:16

#	Modifying user name:	WinNT
#	Modification time:	15. 06. 2019 20:16

#	Program:	/corina/corina34_cracker 3.40 0067  02.08.2006

@<TRIPOS>MOLECULE
ASD02038381
  48   51    0    0    0
SMALL
NO_CHARGES


@<TRIPOS>ATOM
   1 N1            -0.0162     1.3436     0.0094 N.am    
   2 C2             0.0021    -0.0041     0.0020 C.2     
   3 C3            -1.2926    -0.7753     0.0102 C.3     
   4 C4            -0.9927    -2.2755    -0.0007 C.3     
   5 O5            -2.2204    -3.0068     0.0071 O.3     
   6 C6            -2.1308    -4.3635    -0.0010 C.ar    
   7 C7            -3.2837    -5.1319     0.0059 C.ar    
   8 C8             1.2357     2.1156     0.0016 C.3     
   9 C9             1.1612     3.1524    -1.1243 C.3     
  10 N10           -0.0610     3.9524    -0.9688 N.3     
  11 C11           -1.2637     3.1194    -1.1013 C.3     
  12 C12           -1.2886     2.0812     0.0194 C.3     
  13 C13           -0.0841     5.0134    -1.8779 C.ar    
  14 C14           -1.1594     5.8925    -1.8940 C.ar    
  15 C15           -1.1792     6.9411    -2.7939 C.ar    
  16 C16           -0.1279     7.1153    -3.6789 C.ar    
  17 C17            0.9437     6.2406    -3.6643 C.ar    
  18 C18            0.9708     5.1940    -2.7631 C.ar    
  19 Cl19          -0.1556     8.4330    -4.8087 Cl      
  20 O20            1.0605    -0.5961    -0.0113 O.2     
  21 Cl21          -2.5226     8.0404    -2.8156 Cl      
  22 C22           -0.8842    -4.9748    -0.0219 C.ar    
  23 C23           -0.7878    -6.3524    -0.0303 C.ar    
  24 C24           -1.9381    -7.1255    -0.0178 C.ar    
  25 C25           -3.1918    -6.5148    -0.0025 C.ar    
  26 N26           -2.1662    -8.5033    -0.0214 N.am    
  27 C27           -3.5006    -8.6924    -0.0033 C.2     
  28 O28           -4.1207    -7.5020     0.0073 O.3     
  29 O29           -4.0566    -9.7738    -0.0014 O.2     
  30 H30           -1.8592    -0.5245     0.9070 H       
  31 H31           -1.8762    -0.5150    -0.8728 H       
  32 H32           -0.4261    -2.5263    -0.8975 H       
  33 H33           -0.4091    -2.5358     0.8824 H       
  34 H34           -4.2522    -4.6541     0.0180 H       
  35 H35            1.3592     2.6225     0.9586 H       
  36 H36            2.0778     1.4458    -0.1725 H       
  37 H37            2.0323     3.8057    -1.0753 H       
  38 H38            1.1421     2.6426    -2.0875 H       
  39 H39           -2.1512     3.7488    -1.0356 H       
  40 H40           -1.2490     2.6100    -2.0648 H       
  41 H41           -2.1158     1.3897    -0.1405 H       
  42 H42           -1.4069     2.5823     0.9801 H       
  43 H43           -1.9792     5.7565    -1.2042 H       
  44 H44            1.7619     6.3784    -4.3556 H       
  45 H45            1.8080     4.5119    -2.7522 H       
  46 H46            0.0117    -4.3718    -0.0321 H       
  47 H47            0.1824    -6.8266    -0.0469 H       
  48 H48           -1.4885    -9.1972    -0.0346 H       
@<TRIPOS>BOND
   1    1    2 am
   2    1    8 1
   3    1   12 1
   4    2   20 2
   5    2    3 1
   6    3    4 1
   7    3   30 1
   8    3   31 1
   9    4    5 1
  10    4   32 1
  11    4   33 1
  12    5    6 1
  13    6    7 ar
  14    6   22 ar
  15    7   25 ar
  16    7   34 1
  17    8    9 1
  18    8   35 1
  19    8   36 1
  20    9   10 1
  21    9   37 1
  22    9   38 1
  23   10   11 1
  24   10   13 1
  25   11   12 1
  26   11   39 1
  27   11   40 1
  28   12   41 1
  29   12   42 1
  30   13   14 ar
  31   13   18 ar
  32   14   15 ar
  33   14   43 1
  34   15   16 ar
  35   15   21 1
  36   16   17 ar
  37   16   19 1
  38   17   18 ar
  39   17   44 1
  40   18   45 1
  41   22   23 ar
  42   22   46 1
  43   23   24 ar
  44   23   47 1
  45   24   25 ar
  46   24   26 1
  47   25   28 1
  48   26   27 am
  49   26   48 1
  50   27   28 1
  51   27   29 2

#	End of record

