#	Name: ASD03731348
#	Creating user name:	WinNT
#	Creation time:	15. 06. 2019 20:45

#	Modifying user name:	WinNT
#	Modification time:	15. 06. 2019 20:45

#	Program:	/corina/corina34_cracker 3.40 0067  02.08.2006

@<TRIPOS>MOLECULE
ASD03731348
  64   70    0    0    0
SMALL
NO_CHARGES


@<TRIPOS>ATOM
   1 C1            -0.0177     1.4745     0.0020 C.2     
   2 C2             0.0032    -0.0034    -0.0046 C.ar    
   3 C3             1.2199    -0.6873    -0.0284 C.ar    
   4 C4             1.2323    -2.0667    -0.0344 C.ar    
   5 C5             0.0422    -2.7724    -0.0170 C.ar    
   6 C6            -1.1672    -2.1007     0.0066 C.ar    
   7 C7            -1.1937    -0.7215     0.0187 C.ar    
   8 O8             1.0262     2.0971    -0.0133 O.2     
   9 N9            -1.1942     2.1318     0.0193 N.am    
  10 C10            0.0635    -4.2792    -0.0242 C.3     
  11 O11           -2.0067    -1.5284     6.2876 O.3     
  12 C12           -2.2232    -1.6124     7.7085 C.3     
  13 O13           -2.7192    -2.9504     7.9006 O.3     
  14 C14           -2.2011    -3.6838     6.8718 C.ar    
  15 C15           -1.7641    -2.8089     5.8798 C.ar    
  16 C16           -2.0638    -5.0494     6.6992 C.ar    
  17 C17           -1.4922    -5.5593     5.5373 C.ar    
  18 C18           -1.0670    -4.6757     4.5499 C.ar    
  19 C19           -1.1968    -3.3134     4.7217 C.ar    
  20 O20           -1.2512    -6.8532     5.1795 O.3     
  21 C21           -0.5291    -5.5175     3.4238 C.3     
  22 C22           -1.0506    -6.9226     3.7545 C.3     
  23 N23            0.0943    -4.7738     1.3544 N.am    
  24 C24           -1.0080    -5.0441     2.0817 C.2     
  25 C25            0.9684    -5.4799     3.3478 C.ar    
  26 C26            1.9742    -5.7899     4.2358 C.ar    
  27 C27            3.2982    -5.6480     3.8603 C.ar    
  28 C28            3.6089    -5.1934     2.5916 C.ar    
  29 C29            2.6050    -4.8807     1.6989 C.ar    
  30 C30            1.2695    -5.0209     2.0681 C.ar    
  31 O31           -2.1606    -4.9281     1.7223 O.2     
  32 C32           -1.2148     3.5202     0.1321 C.ar    
  33 C33           -2.4234     4.2013     0.0362 C.ar    
  34 C34           -2.4296     5.5801     0.1505 C.ar    
  35 C35           -1.2220     6.2331     0.3576 C.ar    
  36 C36           -0.0593     5.4932     0.4428 C.ar    
  37 N37           -0.0846     4.1785     0.3350 N.ar    
  38 C38            1.2548     6.1960     0.6670 C.3     
  39 C39           -3.7180     6.3557     0.0519 C.3     
  40 H40            2.1495    -0.1376    -0.0423 H       
  41 H41            2.1729    -2.5970    -0.0531 H       
  42 H42           -2.0926    -2.6575     0.0197 H       
  43 H43           -2.1383    -0.1985     0.0416 H       
  44 H44           -2.0266     1.6381    -0.0468 H       
  45 H45           -0.8301    -4.6528    -0.5244 H       
  46 H46            0.9494    -4.6275    -0.5551 H       
  47 H47           -1.2867    -1.4700     8.2477 H       
  48 H48           -2.9648    -0.8797     8.0269 H       
  49 H49           -2.4026    -5.7244     7.4712 H       
  50 H50           -0.8555    -2.6383     3.9508 H       
  51 H51           -0.3076    -7.6800     3.5046 H       
  52 H52           -1.9916    -7.1172     3.2401 H       
  53 H53            1.7292    -6.1446     5.2261 H       
  54 H54            4.0873    -5.8919     4.5562 H       
  55 H55            4.6424    -5.0825     2.2986 H       
  56 H56            2.8555    -4.5258     0.7101 H       
  57 H57           -3.3446     3.6614    -0.1256 H       
  58 H58           -1.1923     7.3087     0.4508 H       
  59 H59            1.4434     6.2810     1.7372 H       
  60 H60            2.0570     5.6238     0.2010 H       
  61 H61            1.2144     7.1916     0.2250 H       
  62 H62           -4.1574     6.4578     1.0442 H       
  63 H63           -3.5162     7.3446    -0.3597 H       
  64 H64           -4.4122     5.8255    -0.6000 H       
@<TRIPOS>BOND
   1    1    2 1
   2    1    8 2
   3    1    9 am
   4    2    3 ar
   5    2    7 ar
   6    3    4 ar
   7    3   40 1
   8    4    5 ar
   9    4   41 1
  10    5    6 ar
  11    5   10 1
  12    6    7 ar
  13    6   42 1
  14    7   43 1
  15    9   32 1
  16    9   44 1
  17   10   23 1
  18   10   45 1
  19   10   46 1
  20   11   12 1
  21   11   15 1
  22   12   13 1
  23   12   47 1
  24   12   48 1
  25   13   14 1
  26   14   15 ar
  27   14   16 ar
  28   15   19 ar
  29   16   17 ar
  30   16   49 1
  31   17   18 ar
  32   17   20 1
  33   18   19 ar
  34   18   21 1
  35   19   50 1
  36   20   22 1
  37   21   22 1
  38   21   24 1
  39   21   25 1
  40   22   51 1
  41   22   52 1
  42   23   24 am
  43   23   30 1
  44   24   31 2
  45   25   26 ar
  46   25   30 ar
  47   26   27 ar
  48   26   53 1
  49   27   28 ar
  50   27   54 1
  51   28   29 ar
  52   28   55 1
  53   29   30 ar
  54   29   56 1
  55   32   33 ar
  56   32   37 ar
  57   33   34 ar
  58   33   57 1
  59   34   35 ar
  60   34   39 1
  61   35   36 ar
  62   35   58 1
  63   36   37 ar
  64   36   38 1
  65   38   59 1
  66   38   60 1
  67   38   61 1
  68   39   62 1
  69   39   63 1
  70   39   64 1

#	End of record

