#	Name: ASD02038633
#	Creating user name:	WinNT
#	Creation time:	15. 06. 2019 20:17

#	Modifying user name:	WinNT
#	Modification time:	15. 06. 2019 20:17

#	Program:	/corina/corina34_cracker 3.40 0067  02.08.2006

@<TRIPOS>MOLECULE
ASD02038633
  52   54    0    0    0
SMALL
NO_CHARGES


@<TRIPOS>ATOM
   1 C1             0.8204     1.4923     0.2932 C.3     
   2 C2             0.7022    -0.0242     0.1277 C.3     
   3 C3            -0.7518    -0.4065     0.0251 C.ar    
   4 C4            -1.3665    -0.4555    -1.2127 C.ar    
   5 C5            -1.4669    -0.7130     1.1683 C.ar    
   6 C6            -2.7996    -1.0637     1.0778 C.ar    
   7 C7            -3.4217    -1.1085    -0.1634 C.ar    
   8 C8            -2.6989    -0.8055    -1.3104 C.ar    
   9 N9            -4.7693    -1.4629    -0.2586 N.am    
  10 S10           -5.9429    -0.3837     0.1893 S.o2    
  11 O11           -7.1622    -1.0750    -0.0444 O.2     
  12 C12            2.2967     1.8804     0.3975 C.3     
  13 N13            2.4101     3.3364     0.5564 N.3     
  14 C14            3.7887     3.7241     0.8965 C.3     
  15 C15            1.4783     3.8285     1.5798 C.3     
  16 C16            1.7197     5.2896     1.8340 C.2     
  17 N17            2.8432     5.9124     1.4630 N.am    
  18 C18            3.9237     5.2405     0.7467 C.3     
  19 C19            2.9901     7.2689     1.7752 C.ar    
  20 C20            3.1219     7.6674     3.0985 C.ar    
  21 C21            3.0100     8.2178     0.7612 C.ar    
  22 C22            3.1550     9.5557     1.0711 C.ar    
  23 C23            3.2805     9.9520     2.3910 C.ar    
  24 C24            3.2668     9.0078     3.4039 C.ar    
  25 Cl25           3.4632    11.6346     2.7770 Cl      
  26 Cl26           3.4239     9.5085     5.0588 Cl      
  27 O27           -5.5680     0.0179     1.4997 O.2     
  28 C28           -5.7590     0.9944    -0.9759 C.3     
  29 O29            0.8592     5.9310     2.3991 O.2     
  30 H30            0.3745     1.9877    -0.5692 H       
  31 H31            0.2988     1.8006     1.1993 H       
  32 H32            1.2238    -0.3325    -0.7783 H       
  33 H33            1.1482    -0.5196     0.9901 H       
  34 H34           -0.8041    -0.2195    -2.1040 H       
  35 H35           -0.9826    -0.6783     2.1330 H       
  36 H36           -3.3574    -1.3033     1.9710 H       
  37 H37           -3.1796    -0.8390    -2.2769 H       
  38 H38           -5.0179    -2.3411    -0.5870 H       
  39 H39            2.7426     1.3850     1.2599 H       
  40 H40            2.8183     1.5721    -0.5086 H       
  41 H41            4.0056     3.4376     1.9256 H       
  42 H42            4.4854     3.2266     0.2217 H       
  43 H43            0.4541     3.6855     1.2354 H       
  44 H44            1.6286     3.2707     2.5042 H       
  45 H45            4.8822     5.5609     1.1550 H       
  46 H46            3.8762     5.5046    -0.3097 H       
  47 H47            3.1109     6.9311     3.8885 H       
  48 H48            2.9124     7.9094    -0.2693 H       
  49 H49            3.1708    10.2935     0.2826 H       
  50 H50           -5.8167     0.6171    -1.9969 H       
  51 H51           -6.5565     1.7188    -0.8106 H       
  52 H52           -4.7933     1.4753    -0.8203 H       
@<TRIPOS>BOND
   1    1    2 1
   2    1   12 1
   3    1   30 1
   4    1   31 1
   5    2    3 1
   6    2   32 1
   7    2   33 1
   8    3    4 ar
   9    3    5 ar
  10    4    8 ar
  11    4   34 1
  12    5    6 ar
  13    5   35 1
  14    6    7 ar
  15    6   36 1
  16    7    8 ar
  17    7    9 1
  18    8   37 1
  19    9   10 am
  20    9   38 1
  21   10   11 2
  22   10   27 2
  23   10   28 1
  24   12   13 1
  25   12   39 1
  26   12   40 1
  27   13   14 1
  28   13   15 1
  29   14   18 1
  30   14   41 1
  31   14   42 1
  32   15   16 1
  33   15   43 1
  34   15   44 1
  35   16   17 am
  36   16   29 2
  37   17   18 1
  38   17   19 1
  39   18   45 1
  40   18   46 1
  41   19   20 ar
  42   19   21 ar
  43   20   24 ar
  44   20   47 1
  45   21   22 ar
  46   21   48 1
  47   22   23 ar
  48   22   49 1
  49   23   24 ar
  50   23   25 1
  51   24   26 1
  52   28   50 1
  53   28   51 1
  54   28   52 1

#	End of record

