#	Name: ASD01410807
#	Creating user name:	WinNT
#	Creation time:	15. 06. 2019 19:18

#	Modifying user name:	WinNT
#	Modification time:	15. 06. 2019 19:18

#	Program:	/corina/corina34_cracker 3.40 0067  02.08.2006

@<TRIPOS>MOLECULE
ASD01410807
  51   53    0    0    0
SMALL
NO_CHARGES


@<TRIPOS>ATOM
   1 N1            -0.0079     1.4735    -1.1251 N.ar    
   2 C2            -0.0699     0.1883    -1.4303 C.ar    
   3 C3             1.0771    -0.5388    -1.7765 C.ar    
   4 C4             2.2966     0.0856    -1.8028 C.ar    
   5 C5             2.3516     1.4605    -1.4746 C.ar    
   6 C6             3.5673     2.1589    -1.4826 C.ar    
   7 C7             3.5916     3.4819    -1.1631 C.ar    
   8 C8             2.4159     4.1581    -0.8248 C.ar    
   9 C9             1.2063     3.5010    -0.8075 C.ar    
  10 C10            1.1533     2.1358    -1.1335 C.ar    
  11 O11            3.4208    -0.5964    -2.1342 O.3     
  12 C12           -0.0535     4.2420    -0.4404 C.3     
  13 S13           -1.6500    -2.1971    -1.7806 S.3     
  14 C14           -1.3789    -0.4973    -1.4053 C.2     
  15 N15           -2.5174     0.0583    -1.1023 N.2     
  16 C16           -3.5818    -0.7064    -1.1326 C.2     
  17 C17           -3.3728    -1.9842    -1.4754 C.2     
  18 C18           -4.9548    -0.1807    -0.8019 C.3     
  19 C19           -5.6718     0.2205    -2.0926 C.3     
  20 C20           -5.7596    -1.2690    -0.0886 C.3     
  21 O21            2.4676     5.4782    -0.5091 O.3     
  22 C22            3.7518     6.1039    -0.5445 C.3     
  23 C23            3.6112     7.5788    -0.1627 C.3     
  24 O24            2.7385     8.2295    -1.0885 O.3     
  25 C25            2.7972     9.6564    -1.0381 C.3     
  26 O26            3.0683     7.6800     1.1553 O.3     
  27 C27            3.3289     8.9299     1.7969 C.3     
  28 H28            1.0002    -1.5878    -2.0215 H       
  29 H29            4.4829     1.6480    -1.7415 H       
  30 H30            4.5306     4.0155    -1.1708 H       
  31 H31            3.6224    -0.5868    -3.0799 H       
  32 H32           -0.5028     4.6627    -1.3399 H       
  33 H33           -0.7563     3.5536     0.0290 H       
  34 H34            0.1873     5.0458     0.2554 H       
  35 H35           -4.1292    -2.7514    -1.5515 H       
  36 H36           -4.8638     0.6892    -0.1514 H       
  37 H37           -5.7628    -0.6493    -2.7431 H       
  38 H38           -6.6649     0.6008    -1.8534 H       
  39 H39           -5.0985     0.9959    -2.6008 H       
  40 H40           -6.7527    -0.8887     0.1506 H       
  41 H41           -5.8505    -2.1389    -0.7392 H       
  42 H42           -5.2488    -1.5549     0.8309 H       
  43 H43            4.4174     5.6076     0.1617 H       
  44 H44            4.1659     6.0268    -1.5498 H       
  45 H45            4.5907     8.0561    -0.1897 H       
  46 H46            2.4181    10.0689    -1.9731 H       
  47 H47            2.1879    10.0160    -0.2089 H       
  48 H48            3.8302     9.9727    -0.8939 H       
  49 H49            4.3945     9.1523     1.7400 H       
  50 H50            2.7659     9.7188     1.2981 H       
  51 H51            3.0251     8.8721     2.8422 H       
@<TRIPOS>BOND
   1    1    2 ar
   2    1   10 ar
   3    2    3 ar
   4    2   14 1
   5    3    4 ar
   6    3   28 1
   7    4    5 ar
   8    4   11 1
   9    5    6 ar
  10    5   10 ar
  11    6    7 ar
  12    6   29 1
  13    7    8 ar
  14    7   30 1
  15    8    9 ar
  16    8   21 1
  17    9   10 ar
  18    9   12 1
  19   11   31 1
  20   12   32 1
  21   12   33 1
  22   12   34 1
  23   13   14 1
  24   13   17 1
  25   14   15 2
  26   15   16 1
  27   16   17 2
  28   16   18 1
  29   17   35 1
  30   18   19 1
  31   18   20 1
  32   18   36 1
  33   19   37 1
  34   19   38 1
  35   19   39 1
  36   20   40 1
  37   20   41 1
  38   20   42 1
  39   21   22 1
  40   22   23 1
  41   22   43 1
  42   22   44 1
  43   23   24 1
  44   23   26 1
  45   23   45 1
  46   24   25 1
  47   25   46 1
  48   25   47 1
  49   25   48 1
  50   26   27 1
  51   27   49 1
  52   27   50 1
  53   27   51 1

#	End of record

