#	Name: ASD01901296
#	Creating user name:	WinNT
#	Creation time:	15. 06. 2019 19:53

#	Modifying user name:	WinNT
#	Modification time:	15. 06. 2019 19:53

#	Program:	/corina/corina34_cracker 3.40 0067  02.08.2006

@<TRIPOS>MOLECULE
ASD01901296
  41   45    0    0    0
SMALL
NO_CHARGES


@<TRIPOS>ATOM
   1 C1            -0.0884     1.2876    -0.0053 C.ar    
   2 C2            -0.0240    -0.0636    -0.1554 C.ar    
   3 C3             1.2212    -0.7138    -0.0961 C.ar    
   4 C4             2.3955     0.0539     0.1203 C.ar    
   5 C5             2.2876     1.4482     0.2707 C.ar    
   6 C6             1.0646     2.0416     0.2073 C.ar    
   7 N7             1.3099    -2.0401    -0.2401 N.ar    
   8 C8             2.4901    -2.6293    -0.1804 C.ar    
   9 C9             3.6624    -1.8628     0.0355 C.ar    
  10 N10            3.5852    -0.5518     0.1791 N.ar    
  11 C11            2.5892    -4.0987    -0.3394 C.ar    
  12 C12            4.9791    -2.5342     0.1009 C.ar    
  13 C13            1.6876    -4.9363     0.3168 C.ar    
  14 C14            1.7848    -6.3042     0.1644 C.ar    
  15 C15            2.7739    -6.8452    -0.6374 C.ar    
  16 C16            3.6711    -6.0195    -1.2909 C.ar    
  17 C17            3.5809    -4.6498    -1.1506 C.ar    
  18 C18            5.2172    -3.5604     1.0064 C.ar    
  19 C19            6.4665    -4.1702     1.0408 C.ar    
  20 N20            7.4378    -3.8050     0.2395 N.ar    
  21 C21            7.2811    -2.8256    -0.6567 C.ar    
  22 C22            6.0385    -2.1553    -0.7628 C.ar    
  23 C23            5.8788    -1.1338    -1.7082 C.ar    
  24 C24            8.3350    -2.4485    -1.5082 C.ar    
  25 C25            8.1480    -1.4481    -2.4119 C.ar    
  26 C26            6.9202    -0.7988    -2.5207 C.ar    
  27 H27           -1.0465     1.7834    -0.0560 H       
  28 H28           -0.9261    -0.6344    -0.3191 H       
  29 H29            3.1720     2.0455     0.4363 H       
  30 H30            0.9862     3.1125     0.3234 H       
  31 H31            0.9153    -4.5151     0.9433 H       
  32 H32            1.0874    -6.9539     0.6723 H       
  33 H33            2.8461    -7.9166    -0.7534 H       
  34 H34            4.4413    -6.4477    -1.9153 H       
  35 H35            4.2793    -4.0060    -1.6646 H       
  36 H36            4.4367    -3.8826     1.6798 H       
  37 H37            6.6419    -4.9671     1.7483 H       
  38 H38            4.9354    -0.6149    -1.7927 H       
  39 H39            9.2891    -2.9505    -1.4451 H       
  40 H40            8.9602    -1.1620    -3.0637 H       
  41 H41            6.7960    -0.0114    -3.2495 H       
@<TRIPOS>BOND
   1    1    2 ar
   2    1    6 ar
   3    1   27 1
   4    2    3 ar
   5    2   28 1
   6    3    4 ar
   7    3    7 ar
   8    4    5 ar
   9    4   10 ar
  10    5    6 ar
  11    5   29 1
  12    6   30 1
  13    7    8 ar
  14    8    9 ar
  15    8   11 1
  16    9   10 ar
  17    9   12 1
  18   11   13 ar
  19   11   17 ar
  20   12   18 ar
  21   12   22 ar
  22   13   14 ar
  23   13   31 1
  24   14   15 ar
  25   14   32 1
  26   15   16 ar
  27   15   33 1
  28   16   17 ar
  29   16   34 1
  30   17   35 1
  31   18   19 ar
  32   18   36 1
  33   19   20 ar
  34   19   37 1
  35   20   21 ar
  36   21   22 ar
  37   21   24 ar
  38   22   23 ar
  39   23   26 ar
  40   23   38 1
  41   24   25 ar
  42   24   39 1
  43   25   26 ar
  44   25   40 1
  45   26   41 1

#	End of record

