#	Name: ASD01410801
#	Creating user name:	WinNT
#	Creation time:	15. 06. 2019 19:18

#	Modifying user name:	WinNT
#	Modification time:	15. 06. 2019 19:18

#	Program:	/corina/corina34_cracker 3.40 0067  02.08.2006

@<TRIPOS>MOLECULE
ASD01410801
  36   38    0    0    0
SMALL
NO_CHARGES


@<TRIPOS>ATOM
   1 N1            -0.0158     1.3164     0.0093 N.ar    
   2 C2             0.0021    -0.0041     0.0020 C.ar    
   3 C3             1.2089    -0.7206    -0.0129 C.ar    
   4 C4             2.3968    -0.0498    -0.0206 C.ar    
   5 C5             2.3691     1.3608    -0.0132 C.ar    
   6 C6             3.5560     2.1091    -0.0209 C.ar    
   7 C7             3.5006     3.4691    -0.0140 C.ar    
   8 C8             2.2722     4.1354     0.0007 C.ar    
   9 C9             1.0888     3.4307     0.0091 C.ar    
  10 C10            1.1175     2.0258     0.0023 C.ar    
  11 O11            2.2451     5.4939     0.0073 O.3     
  12 C12            3.5051     6.1680    -0.0015 C.3     
  13 S13           -3.7250    -1.3828     0.0311 S.3     
  14 C14           -2.5224    -2.5971     0.0126 C.2     
  15 N15           -1.3483    -2.0697     0.0038 N.2     
  16 C16           -1.2799    -0.7454     0.0103 C.2     
  17 C17           -2.4832    -0.1332     0.0255 C.2     
  18 C18           -2.7983    -4.0786     0.0078 C.3     
  19 C19           -3.5885    -4.4543     1.2629 C.3     
  20 C20           -3.6128    -4.4417    -1.2354 C.3     
  21 Cl21          -0.4291     4.2731     0.0286 Cl      
  22 Cl22           3.9045    -0.9102    -0.0384 Cl      
  23 H23            1.1971    -1.8005    -0.0179 H       
  24 H24            4.5121     1.6068    -0.0320 H       
  25 H25            4.4171     4.0403    -0.0197 H       
  26 H26            3.3407     7.2455     0.0051 H       
  27 H27            4.0762     5.8822     0.8818 H       
  28 H28            4.0593     5.8905    -0.8981 H       
  29 H29           -2.6540     0.9331     0.0326 H       
  30 H30           -1.8545    -4.6239    -0.0041 H       
  31 H31           -4.5322    -3.9090     1.2749 H       
  32 H32           -3.7880    -5.5259     1.2595 H       
  33 H33           -3.0082    -4.1956     2.1486 H       
  34 H34           -3.0499    -4.1740    -2.1296 H       
  35 H35           -3.8124    -5.5133    -1.2389 H       
  36 H36           -4.5566    -3.8964    -1.2234 H       
@<TRIPOS>BOND
   1    1    2 ar
   2    1   10 ar
   3    2    3 ar
   4    2   16 1
   5    3    4 ar
   6    3   23 1
   7    4    5 ar
   8    4   22 1
   9    5    6 ar
  10    5   10 ar
  11    6    7 ar
  12    6   24 1
  13    7    8 ar
  14    7   25 1
  15    8    9 ar
  16    8   11 1
  17    9   10 ar
  18    9   21 1
  19   11   12 1
  20   12   26 1
  21   12   27 1
  22   12   28 1
  23   13   14 1
  24   13   17 1
  25   14   15 2
  26   14   18 1
  27   15   16 1
  28   16   17 2
  29   17   29 1
  30   18   19 1
  31   18   20 1
  32   18   30 1
  33   19   31 1
  34   19   32 1
  35   19   33 1
  36   20   34 1
  37   20   35 1
  38   20   36 1

#	End of record

