#	Name: ASD01813317
#	Creating user name:	WinNT
#	Creation time:	15. 06. 2019 19:30

#	Modifying user name:	WinNT
#	Modification time:	15. 06. 2019 19:30

#	Program:	/corina/corina34_cracker 3.40 0067  02.08.2006

@<TRIPOS>MOLECULE
ASD01813317
  50   53    0    0    0
SMALL
NO_CHARGES


@<TRIPOS>ATOM
   1 C1            -0.2435     1.4157    -0.4210 C.2     
   2 C2            -0.1943     0.0162    -0.3673 C.2     
   3 C3             1.0155    -0.6112    -0.3044 C.2     
   4 C4             2.1918     0.1567    -0.2944 C.2     
   5 N5             2.1143     1.5219    -0.3474 N.am    
   6 C6             0.8996     2.1379    -0.4105 C.2     
   7 C7             3.4363    -0.4857    -0.2297 C.2     
   8 C8             4.5852     0.2508    -0.2190 C.2     
   9 C9             4.5017     1.6545    -0.2742 C.2     
  10 C10            3.2354     2.2710    -0.3383 C.2     
  11 O11            3.1537     3.4867    -0.3867 O.2     
  12 C12            5.7195     2.4679    -0.2636 C.2     
  13 O13            5.6327     3.8130    -0.3167 O.3     
  14 O14            6.8093     1.9305    -0.2071 O.2     
  15 C15            3.5054    -1.9900    -0.1713 C.3     
  16 C16            3.7014    -2.5467    -1.5829 C.3     
  17 N17            3.7687    -4.0130    -1.5260 N.3     
  18 C18            2.4986    -4.5798    -1.0614 C.3     
  19 C19            2.5463    -6.0847    -1.1022 C.ar    
  20 C20            3.4930    -6.7627    -1.8396 C.ar    
  21 C21            4.5406    -6.0351    -2.6425 C.3     
  22 C22            4.1282    -4.5758    -2.8374 C.3     
  23 C23            1.6039    -6.7953    -0.3730 C.ar    
  24 C24            1.6086    -8.1753    -0.3839 C.ar    
  25 C25            2.5571    -8.8549    -1.1256 C.ar    
  26 C26            3.4958    -8.1495    -1.8512 C.ar    
  27 C27            5.2961    -3.7867    -3.4326 C.3     
  28 O28            6.4379    -3.9117    -2.5825 O.3     
  29 H29           -1.1975     1.9190    -0.4755 H       
  30 H30           -1.1070    -0.5611    -0.3754 H       
  31 H31            1.0684    -1.6890    -0.2622 H       
  32 H32            0.8498     3.2160    -0.4519 H       
  33 H33            5.5470    -0.2378    -0.1686 H       
  34 H34            6.4638     4.3073    -0.3072 H       
  35 H35            4.3433    -2.2911     0.4576 H       
  36 H36            2.5780    -2.3803     0.2477 H       
  37 H37            2.8635    -2.2456    -2.2117 H       
  38 H38            4.6288    -2.1564    -2.0019 H       
  39 H39            2.3120    -4.2534    -0.0383 H       
  40 H40            1.6913    -4.2278    -1.7036 H       
  41 H41            5.4934    -6.0746    -2.1146 H       
  42 H42            4.6477    -6.5139    -3.6159 H       
  43 H43            3.2690    -4.5241    -3.5061 H       
  44 H44            0.8625    -6.2654     0.2067 H       
  45 H45            0.8730    -8.7234     0.1862 H       
  46 H46            2.5638    -9.9348    -1.1369 H       
  47 H47            4.2365    -8.6803    -2.4308 H       
  48 H48            5.5341    -4.1799    -4.4209 H       
  49 H49            5.0192    -2.7358    -3.5167 H       
  50 H50            7.2178    -3.4356    -2.8988 H       
@<TRIPOS>BOND
   1    1    2 1
   2    1    6 2
   3    1   29 1
   4    2    3 2
   5    2   30 1
   6    3    4 1
   7    3   31 1
   8    4    5 1
   9    4    7 2
  10    5    6 1
  11    5   10 am
  12    6   32 1
  13    7    8 1
  14    7   15 1
  15    8    9 2
  16    8   33 1
  17    9   10 1
  18    9   12 1
  19   10   11 2
  20   12   13 1
  21   12   14 2
  22   13   34 1
  23   15   16 1
  24   15   35 1
  25   15   36 1
  26   16   17 1
  27   16   37 1
  28   16   38 1
  29   17   18 1
  30   17   22 1
  31   18   19 1
  32   18   39 1
  33   18   40 1
  34   19   20 ar
  35   19   23 ar
  36   20   21 1
  37   20   26 ar
  38   21   22 1
  39   21   41 1
  40   21   42 1
  41   22   27 1
  42   22   43 1
  43   23   24 ar
  44   23   44 1
  45   24   25 ar
  46   24   45 1
  47   25   26 ar
  48   25   46 1
  49   26   47 1
  50   27   28 1
  51   27   48 1
  52   27   49 1
  53   28   50 1

#	End of record

