#	Name: ASD03331033
#	Creating user name:	WinNT
#	Creation time:	15. 06. 2019 20:38

#	Modifying user name:	WinNT
#	Modification time:	15. 06. 2019 20:38

#	Program:	/corina/corina34_cracker 3.40 0067  02.08.2006

@<TRIPOS>MOLECULE
ASD03331033
  65   66    0    0    0
SMALL
NO_CHARGES


@<TRIPOS>ATOM
   1 N1             0.0863     1.0867     0.6797 N.pl3   
   2 C2             0.0549    -0.2687     0.5732 C.2     
   3 C3             1.2573    -1.1762     0.5618 C.3     
   4 N4             2.1588    -0.7960     1.6606 N.3     
   5 C5             3.1123     0.2297     1.2334 C.3     
   6 C6             2.4810     1.1701     0.2108 C.3     
   7 C7             1.2936     1.9015     0.8428 C.3     
   8 C8            -1.2024     1.5313     0.6183 C.2     
   9 N9            -1.9979     0.4943     0.4974 N.2     
  10 C10           -1.2528    -0.6328     0.4694 C.2     
  11 C11           -1.7642    -2.0093     0.3474 C.2     
  12 O12           -0.9895    -2.9468     0.3328 O.2     
  13 N13           -3.0905    -2.2295     0.2519 N.am    
  14 C14           -1.6311     2.9452     0.6784 C.ar    
  15 C15           -2.5588     3.4365    -0.2441 C.ar    
  16 C16           -2.9562     4.7585    -0.1830 C.ar    
  17 C17           -2.4365     5.5960     0.7898 C.ar    
  18 C18           -1.5145     5.1132     1.7081 C.ar    
  19 C19           -1.1151     3.7921     1.6599 C.ar    
  20 F20           -1.0108     5.9358     2.6539 F       
  21 F21           -2.8280     6.8879     0.8449 F       
  22 F22           -3.0658     2.6206    -1.1941 F       
  23 C23            2.8561    -1.9710     2.2000 C.3     
  24 C24           -4.9623    -3.5759    -0.5633 C.3     
  25 C25           -3.5989    -3.5981     0.1306 C.3     
  26 C26           -3.7456    -4.2130     1.5239 C.3     
  27 C27           -4.4247    -5.5792     1.4094 C.3     
  28 C28           -2.3621    -4.3823     2.1548 C.3     
  29 C29           -4.5968    -3.2923     2.4006 C.3     
  30 O30           -5.8917    -2.8416     0.2360 O.3     
  31 C31           -7.2035    -2.7601    -0.3250 C.3     
  32 H32            0.9356    -2.2090     0.6953 H       
  33 H33            1.7800    -1.0764    -0.3895 H       
  34 H34            3.4307     0.8066     2.1017 H       
  35 H35            3.9816    -0.2532     0.7870 H       
  36 H36            3.2222     1.8986    -0.1177 H       
  37 H37            2.1361     0.5933    -0.6474 H       
  38 H38            1.1536     2.8633     0.3495 H       
  39 H39            1.4859     2.0595     1.9040 H       
  40 H40           -3.7083    -1.4818     0.2635 H       
  41 H41           -3.6731     5.1393    -0.8953 H       
  42 H42           -0.4010     3.4164     2.3777 H       
  43 H43            3.3885    -2.4786     1.3956 H       
  44 H44            3.5672    -1.6532     2.9625 H       
  45 H45            2.1299    -2.6532     2.6421 H       
  46 H46           -4.8659    -3.0992    -1.5388 H       
  47 H47           -5.3212    -4.5971    -0.6919 H       
  48 H48           -2.9013    -4.1940    -0.4580 H       
  49 H49           -3.8183    -6.2352     0.7848 H       
  50 H50           -4.5292    -6.0173     2.4020 H       
  51 H51           -5.4103    -5.4586     0.9599 H       
  52 H52           -1.8784    -3.4090     2.2364 H       
  53 H53           -2.4667    -4.8204     3.1475 H       
  54 H54           -1.7557    -5.0383     1.5302 H       
  55 H55           -5.6324    -3.3233     2.0619 H       
  56 H56           -4.5433    -3.6259     3.4369 H       
  57 H57           -4.2211    -2.2717     2.3276 H       
  58 H58           -7.1536    -2.2664    -1.2955 H       
  59 H59           -7.6088    -3.7643    -0.4486 H       
  60 H60           -7.8486    -2.1874     0.3412 H       
  61 C61            9.5088    14.0496     9.3200 C.3     
  62 I62            9.5381    11.8879     9.3081 I       
  63 H63           10.5314    14.4269     9.3122 H       
  64 H64            8.9816    14.4107     8.4369 H       
  65 H65            8.9986    14.4012    10.2168 H       
@<TRIPOS>BOND
   1    1    2 1
   2    1    7 1
   3    1    8 1
   4    2    3 1
   5    2   10 2
   6    3    4 1
   7    3   32 1
   8    3   33 1
   9    4    5 1
  10    4   23 1
  11    5    6 1
  12    5   34 1
  13    5   35 1
  14    6    7 1
  15    6   36 1
  16    6   37 1
  17    7   38 1
  18    7   39 1
  19    8    9 2
  20    8   14 1
  21    9   10 1
  22   10   11 1
  23   11   12 2
  24   11   13 am
  25   13   25 1
  26   13   40 1
  27   14   15 ar
  28   14   19 ar
  29   15   16 ar
  30   15   22 1
  31   16   17 ar
  32   16   41 1
  33   17   18 ar
  34   17   21 1
  35   18   19 ar
  36   18   20 1
  37   19   42 1
  38   23   43 1
  39   23   44 1
  40   23   45 1
  41   24   30 1
  42   24   25 1
  43   24   46 1
  44   24   47 1
  45   25   26 1
  46   25   48 1
  47   26   27 1
  48   26   28 1
  49   26   29 1
  50   27   49 1
  51   27   50 1
  52   27   51 1
  53   28   52 1
  54   28   53 1
  55   28   54 1
  56   29   55 1
  57   29   56 1
  58   29   57 1
  59   30   31 1
  60   31   58 1
  61   31   59 1
  62   31   60 1
  63   61   62 1
  64   61   63 1
  65   61   64 1
  66   61   65 1

#	End of record

