#	Name: ASD09900009
#	Creating user name:	WinNT
#	Creation time:	15. 06. 2019 21:24

#	Modifying user name:	WinNT
#	Modification time:	15. 06. 2019 21:24

#	Program:	/corina/corina34_cracker 3.40 0067  02.08.2006

@<TRIPOS>MOLECULE
ASD09900009
  20   21    0    0    0
SMALL
NO_CHARGES


@<TRIPOS>ATOM
   1 C1            -0.0164     1.3602     0.0095 C.ar    
   2 C2             0.0021    -0.0041     0.0020 C.ar    
   3 C3             1.2072    -0.6953    -0.0127 C.ar    
   4 C4             2.4053    -0.0171    -0.0201 C.ar    
   5 C5             2.4125     1.3752    -0.0131 C.ar    
   6 C6             1.1894     2.0735     0.0018 C.ar    
   7 N7             3.4198     2.3108    -0.0170 N.pl3   
   8 C8             2.8558     3.5718    -0.0053 C.2     
   9 C9             1.5023     3.4544     0.0070 C.2     
  10 C10            3.6016     4.8393    -0.0056 C.2     
  11 O11            3.0022     5.8977     0.0054 O.2     
  12 N12            4.9493     4.8282    -0.0179 N.am    
  13 Pr13           6.1563     6.8794    -0.0183 Du      
  14 H14           -0.9582     1.8888     0.0168 H       
  15 H15           -0.9287    -0.5518     0.0080 H       
  16 H16            1.2042    -1.7753    -0.0182 H       
  17 H17            3.3368    -0.5634    -0.0308 H       
  18 H18            4.3702     2.1173    -0.0261 H       
  19 H19            0.7925     4.2683     0.0186 H       
  20 H20            5.4273     3.9842    -0.0267 H       
@<TRIPOS>BOND
   1    1    2 ar
   2    1    6 ar
   3    1   14 1
   4    2    3 ar
   5    2   15 1
   6    3    4 ar
   7    3   16 1
   8    4    5 ar
   9    4   17 1
  10    5    7 1
  11    5    6 ar
  12    6    9 1
  13    7    8 1
  14    7   18 1
  15    8    9 2
  16    8   10 1
  17    9   19 1
  18   10   11 2
  19   10   12 am
  20   12   13 1
  21   12   20 1

#	End of record

