#	Name: ASD01230406
#	Creating user name:	WinNT
#	Creation time:	15. 06. 2019 19:14

#	Modifying user name:	WinNT
#	Modification time:	15. 06. 2019 19:14

#	Program:	/corina/corina34_cracker 3.40 0067  02.08.2006

@<TRIPOS>MOLECULE
ASD01230406
  44   47    0    0    0
SMALL
NO_CHARGES


@<TRIPOS>ATOM
   1 C1            -0.0167     1.3781     0.0096 C.ar    
   2 C2             0.0021    -0.0041     0.0020 C.ar    
   3 C3             1.2084    -0.6789    -0.0132 C.ar    
   4 C4             2.3961     0.0285    -0.0212 C.ar    
   5 C5             2.3773     1.4107    -0.0145 C.ar    
   6 C6             1.1709     2.0855     0.0021 C.ar    
   7 C7             1.1505     3.5924     0.0099 C.3     
   8 N8             1.1568     4.0736     1.3936 N.am    
   9 C9             1.1412     5.3973     1.6467 C.2     
  10 O10            1.1218     6.1900     0.7291 O.2     
  11 C11            1.1477     5.8924     3.0701 C.3     
  12 C12            1.1272     7.3992     3.0779 C.2     
  13 O13            1.6979     9.3571     2.6567 O.3     
  14 N14            1.9634     8.1925     2.4702 N.2     
  15 C15            0.1962     8.2256     3.7391 C.2     
  16 C16            0.6110     9.4948     3.4372 C.2     
  17 C17           -0.0101    10.7605     3.8791 C.ar    
  18 C18           -1.7175    11.9200     5.1087 C.ar    
  19 C19           -1.1396    10.7372     4.6987 C.ar    
  20 C20            0.5345    11.9833     3.4828 C.ar    
  21 C21           -0.0494    13.1668     3.8983 C.ar    
  22 C22           -1.1802    13.1368     4.7097 C.ar    
  23 O23            0.4955    14.3513     3.5067 O.3     
  24 C24           -0.3318    15.5130     3.6328 C.3     
  25 C25           -0.9883    15.4865     5.0197 C.3     
  26 O26           -1.7697    14.2915     5.1232 O.3     
  27 H27           -0.9592     1.9054     0.0170 H       
  28 H28           -0.9258    -0.5567     0.0083 H       
  29 H29            1.2231    -1.7588    -0.0184 H       
  30 H30            3.3386    -0.4987    -0.0324 H       
  31 H31            3.3052     1.9634    -0.0205 H       
  32 H32            2.0306     3.9704    -0.5103 H       
  33 H33            0.2509     3.9462    -0.4937 H       
  34 H34            1.1723     3.4396     2.1276 H       
  35 H35            0.2675     5.5144     3.5903 H       
  36 H36            2.0473     5.5386     3.5737 H       
  37 H37           -0.6481     7.9271     4.3428 H       
  38 H38           -2.5917    11.9000     5.7426 H       
  39 H39           -1.5609     9.7932     5.0112 H       
  40 H40            1.4113    12.0055     2.8526 H       
  41 H41            0.2775    16.4111     3.5315 H       
  42 H42           -1.1017    15.5015     2.8613 H       
  43 H43           -0.2182    15.4899     5.7911 H       
  44 H44           -1.6320    16.3581     5.1384 H       
@<TRIPOS>BOND
   1    1    2 ar
   2    1    6 ar
   3    1   27 1
   4    2    3 ar
   5    2   28 1
   6    3    4 ar
   7    3   29 1
   8    4    5 ar
   9    4   30 1
  10    5    6 ar
  11    5   31 1
  12    6    7 1
  13    7    8 1
  14    7   32 1
  15    7   33 1
  16    8    9 am
  17    8   34 1
  18    9   10 2
  19    9   11 1
  20   11   12 1
  21   11   35 1
  22   11   36 1
  23   12   15 1
  24   12   14 2
  25   13   14 1
  26   13   16 1
  27   15   16 2
  28   15   37 1
  29   16   17 1
  30   17   20 ar
  31   17   19 ar
  32   18   19 ar
  33   18   22 ar
  34   18   38 1
  35   19   39 1
  36   20   21 ar
  37   20   40 1
  38   21   23 1
  39   21   22 ar
  40   22   26 1
  41   23   24 1
  42   24   25 1
  43   24   41 1
  44   24   42 1
  45   25   26 1
  46   25   43 1
  47   25   44 1

#	End of record

