#	Name: ASD01881435
#	Creating user name:	WinNT
#	Creation time:	15. 06. 2019 19:42

#	Modifying user name:	WinNT
#	Modification time:	15. 06. 2019 19:42

#	Program:	/corina/corina34_cracker 3.40 0067  02.08.2006

@<TRIPOS>MOLECULE
ASD01881435
  53   56    0    0    0
SMALL
NO_CHARGES


@<TRIPOS>ATOM
   1 O1            -0.2202     1.7023     0.0675 O.3     
   2 C2            -6.5364    -3.5492    -4.8791 C.ar    
   3 C3            -5.5573    -3.1692    -3.9850 C.ar    
   4 C4            -7.2134    -2.5898    -5.6190 C.ar    
   5 C5            -6.9071    -1.2420    -5.4616 C.ar    
   6 C6            -5.9285    -0.8559    -4.5685 C.ar    
   7 C7            -5.2470    -1.8192    -3.8239 C.ar    
   8 C8            -4.1957    -1.4087    -2.8642 C.2     
   9 C9            -4.3667    -1.6207    -1.5090 C.2     
  10 C10           -3.0032    -0.8005    -3.3266 C.2     
  11 C11           -2.0491    -0.4287    -2.4529 C.2     
  12 N12           -2.2117    -0.6295    -1.1123 N.pl3   
  13 C13           -3.3516    -1.2209    -0.6234 C.2     
  14 C14           -1.4365    -0.3618    -0.0252 C.2     
  15 N15           -2.0884    -0.7683     1.0334 N.2     
  16 N16           -3.2198    -1.2779     0.6931 N.2     
  17 C17           -0.0753     0.2847    -0.0393 C.3     
  18 F18           -7.5681    -0.3107    -6.1834 F       
  19 O19           -8.1771    -2.9679    -6.4993 O.3     
  20 C20           -7.8195    -3.1497    -7.7976 C.ar    
  21 C21           -6.5208    -2.8782    -8.2164 C.ar    
  22 C22           -6.2035    -3.0794    -9.5502 C.ar    
  23 C23           -7.1794    -3.5395   -10.4141 C.ar    
  24 N24           -8.4015    -3.7874    -9.9849 N.ar    
  25 C25           -8.7428    -3.6143    -8.7236 C.ar    
  26 C26            0.7437     3.9156     0.1819 C.3     
  27 C27            1.0184     2.4151     0.0636 C.3     
  28 C28          -10.1534    -3.9125    -8.2850 C.3     
  29 C29           -6.8424    -3.7605   -11.8662 C.3     
  30 C30           -5.6230    -2.2705    -0.9890 C.3     
  31 F31           -5.4080    -3.6442    -0.8343 F       
  32 F32           -5.9610    -1.7093     0.2472 F       
  33 F33           -6.6665    -2.0611    -1.8971 F       
  34 H34           -6.7734    -4.5950    -5.0069 H       
  35 H35           -5.0315    -3.9168    -3.4096 H       
  36 H36           -5.6902     0.1904    -4.4463 H       
  37 H37           -2.8587    -0.6347    -4.3840 H       
  38 H38           -1.1436     0.0339    -2.8169 H       
  39 H39            0.4332     0.0407    -0.9720 H       
  40 H40            0.5112    -0.0850     0.8018 H       
  41 H41           -5.7783    -2.5190    -7.5192 H       
  42 H42           -5.2053    -2.8787    -9.9106 H       
  43 H43            1.6885     4.4592     0.1789 H       
  44 H44            0.1345     4.2410    -0.6613 H       
  45 H45            0.2125     4.1154     1.1125 H       
  46 H46            1.6276     2.0896     0.9068 H       
  47 H47            1.5496     2.2152    -0.8670 H       
  48 H48          -10.2244    -4.9545    -7.9733 H       
  49 H49          -10.4189    -3.2645    -7.4497 H       
  50 H50          -10.8373    -3.7341    -9.1149 H       
  51 H51           -6.4905    -4.7826   -12.0061 H       
  52 H52           -7.7317    -3.5959   -12.4746 H       
  53 H53           -6.0614    -3.0627   -12.1682 H       
@<TRIPOS>BOND
   1    1   17 1
   2    1   27 1
   3    2    3 ar
   4    2    4 ar
   5    2   34 1
   6    3    7 ar
   7    3   35 1
   8    4    5 ar
   9    4   19 1
  10    5    6 ar
  11    5   18 1
  12    6    7 ar
  13    6   36 1
  14    7    8 1
  15    8    9 2
  16    8   10 1
  17    9   30 1
  18    9   13 1
  19   10   11 2
  20   10   37 1
  21   11   12 1
  22   11   38 1
  23   12   13 1
  24   12   14 1
  25   13   16 2
  26   14   15 2
  27   14   17 1
  28   15   16 1
  29   17   39 1
  30   17   40 1
  31   19   20 1
  32   20   21 ar
  33   20   25 ar
  34   21   22 ar
  35   21   41 1
  36   22   23 ar
  37   22   42 1
  38   23   24 ar
  39   23   29 1
  40   24   25 ar
  41   25   28 1
  42   26   27 1
  43   26   43 1
  44   26   44 1
  45   26   45 1
  46   27   46 1
  47   27   47 1
  48   28   48 1
  49   28   49 1
  50   28   50 1
  51   29   51 1
  52   29   52 1
  53   29   53 1
  54   30   31 1
  55   30   32 1
  56   30   33 1

#	End of record

