#	Name: ASD01918007
#	Creating user name:	WinNT
#	Creation time:	15. 06. 2019 20:10

#	Modifying user name:	WinNT
#	Modification time:	15. 06. 2019 20:10

#	Program:	/corina/corina34_cracker 3.40 0067  02.08.2006

@<TRIPOS>MOLECULE
ASD01918007
  37   40    0    0    0
SMALL
NO_CHARGES


@<TRIPOS>ATOM
   1 N1             4.8232    -0.4051    -2.1633 N.ar    
   2 C2             5.2896     0.2958    -3.1779 C.ar    
   3 C3             5.1770     1.6749    -3.1996 C.ar    
   4 C4             4.5642     2.3203    -2.1366 C.ar    
   5 C5             4.0838     1.5486    -1.0830 C.ar    
   6 C6             4.2343     0.1703    -1.1338 C.ar    
   7 O7             3.4764     2.1367    -0.0192 O.3     
   8 C8             3.4568     3.4958     0.0340 C.2     
   9 N9             2.2060     5.5099    -0.0255 N.pl3   
  10 C10            2.2747     4.1502    -0.0732 C.2     
  11 C11            4.6592     4.1965     0.2046 C.2     
  12 C12            4.6359     5.5843     0.2586 C.2     
  13 C13            3.3440     6.2617     0.1338 C.2     
  14 C14            5.8779     6.3540     0.4372 C.2     
  15 N15            5.8352     7.7001     0.4871 N.am    
  16 C16            7.0070     8.4262     0.6556 C.2     
  17 O17            6.9428     5.7750     0.5396 O.2     
  18 C18            1.1815     6.4035    -0.1052 C.2     
  19 N19            1.6967     7.6011    -0.0060 N.2     
  20 N20            2.9731     7.5266     0.1417 N.2     
  21 Cl21           5.7959     2.5859    -4.5415 Cl      
  22 S22            8.5673     7.7450     0.8120 S.3     
  23 C23            9.2668     9.3550     0.9611 C.2     
  24 C24            8.2764    10.2456     0.8808 C.2     
  25 N25            7.0777     9.7196     0.7117 N.2     
  26 C26            8.5085    11.7320     0.9695 C.3     
  27 H27            5.7662    -0.2129    -4.0028 H       
  28 H28            4.4626     3.3954    -2.1262 H       
  29 H29            3.8649    -0.4377    -0.3212 H       
  30 H30            1.3660     3.5804    -0.1997 H       
  31 H31            5.5938     3.6627     0.2935 H       
  32 H32            4.9861     8.1618     0.4054 H       
  33 H33            0.1356     6.1666    -0.2334 H       
  34 H34           10.3143     9.5816     1.0946 H       
  35 H35            8.6850    12.1324    -0.0288 H       
  36 H36            7.6310    12.2115     1.4034 H       
  37 H37            9.3773    11.9272     1.5981 H       
@<TRIPOS>BOND
   1    1    2 ar
   2    1    6 ar
   3    2    3 ar
   4    2   27 1
   5    3    4 ar
   6    3   21 1
   7    4    5 ar
   8    4   28 1
   9    5    6 ar
  10    5    7 1
  11    6   29 1
  12    7    8 1
  13    8   11 1
  14    8   10 2
  15    9   10 1
  16    9   18 1
  17    9   13 1
  18   10   30 1
  19   11   12 2
  20   11   31 1
  21   12   13 1
  22   12   14 1
  23   13   20 2
  24   14   15 am
  25   14   17 2
  26   15   16 1
  27   15   32 1
  28   16   22 1
  29   16   25 2
  30   18   19 2
  31   18   33 1
  32   19   20 1
  33   22   23 1
  34   23   24 2
  35   23   34 1
  36   24   25 1
  37   24   26 1
  38   26   35 1
  39   26   36 1
  40   26   37 1

#	End of record

