#	Name: ASD05430651
#	Creating user name:	WinNT
#	Creation time:	15. 06. 2019 21:00

#	Modifying user name:	WinNT
#	Modification time:	15. 06. 2019 21:00

#	Program:	/corina/corina34_cracker 3.40 0067  02.08.2006

@<TRIPOS>MOLECULE
ASD05430651
  36   37    0    0    0
SMALL
NO_CHARGES


@<TRIPOS>ATOM
   1 C1            -0.0140     1.3111    -0.2848 C.ar    
   2 C2            -0.0653    -0.0746    -0.2235 C.ar    
   3 C3            -1.2622    -0.7096     0.0794 C.ar    
   4 C4            -2.3980     0.0388     0.3187 C.ar    
   5 C5            -2.3440     1.4193     0.2564 C.ar    
   6 C6            -1.1521     2.0546    -0.0388 C.ar    
   7 C7            -3.5854     2.2330     0.5171 C.3     
   8 C8            -4.6641     1.8581    -0.5011 C.3     
   9 C9            -4.0962     1.9455     1.9304 C.3     
  10 N10            1.0896    -0.8318    -0.4674 N.pl3   
  11 C11            1.2869    -1.6942    -1.4982 C.2     
  12 C12            2.2349    -0.8371     0.2861 C.2     
  13 C13            3.0850    -1.6998    -0.3025 C.2     
  14 N14            2.4818    -2.2075    -1.3876 N.2     
  15 C15            4.4754    -2.0336     0.1732 C.3     
  16 S16            1.5441     2.1434    -0.6793 Du      
  17 F17            2.9300     2.8837    -1.0303 F       
  18 F18            0.8764     2.7644    -2.0062 F       
  19 F19            2.2118     1.5224     0.6476 F       
  20 F20            2.0189     0.8556    -1.5209 F       
  21 F21            1.0693     3.4312     0.1622 F       
  22 H22           -1.3052    -1.7876     0.1274 H       
  23 H23           -3.3294    -0.4546     0.5543 H       
  24 H24           -1.1128     3.1328    -0.0867 H       
  25 H25           -3.3509     3.2934     0.4242 H       
  26 H26           -4.8986     0.7976    -0.4082 H       
  27 H27           -5.5619     2.4466    -0.3126 H       
  28 H28           -4.3002     2.0629    -1.5080 H       
  29 H29           -3.3277     2.2126     2.6558 H       
  30 H30           -4.9940     2.5340     2.1190 H       
  31 H31           -4.3306     0.8851     2.0233 H       
  32 H32            0.5743    -1.9179    -2.2783 H       
  33 H33            2.4200    -0.2599     1.1799 H       
  34 H34            4.4312    -2.8786     0.8603 H       
  35 H35            5.0995    -2.2931    -0.6820 H       
  36 H36            4.9012    -1.1707     0.6852 H       
@<TRIPOS>BOND
   1    1    2 ar
   2    1   16 1
   3    1    6 ar
   4    2    3 ar
   5    2   10 1
   6    3    4 ar
   7    3   22 1
   8    4    5 ar
   9    4   23 1
  10    5    6 ar
  11    5    7 1
  12    6   24 1
  13    7    8 1
  14    7    9 1
  15    7   25 1
  16    8   26 1
  17    8   27 1
  18    8   28 1
  19    9   29 1
  20    9   30 1
  21    9   31 1
  22   10   11 1
  23   10   12 1
  24   11   14 2
  25   11   32 1
  26   12   13 2
  27   12   33 1
  28   13   14 1
  29   13   15 1
  30   15   34 1
  31   15   35 1
  32   15   36 1
  33   16   17 1
  34   16   18 1
  35   16   19 1
  36   16   20 1
  37   16   21 1

#	End of record

