#	Name: ASD02038121
#	Creating user name:	WinNT
#	Creation time:	15. 06. 2019 20:16

#	Modifying user name:	WinNT
#	Modification time:	15. 06. 2019 20:16

#	Program:	/corina/corina34_cracker 3.40 0067  02.08.2006

@<TRIPOS>MOLECULE
ASD02038121
  51   53    0    0    0
SMALL
NO_CHARGES


@<TRIPOS>ATOM
   1 C1             0.1539     1.7905     0.7767 C.ar    
   2 C2             1.2733     2.1154     1.5212 C.ar    
   3 C3             0.1913     0.7263    -0.1052 C.ar    
   4 C4             1.3474    -0.0164    -0.2452 C.ar    
   5 C5             2.4734     0.3072     0.5009 C.ar    
   6 C6             2.4326     1.3777     1.3855 C.ar    
   7 N7             3.6440    -0.4420     0.3621 N.3     
   8 C8             7.5576    -1.9635     0.8260 C.3     
   9 C9             7.9895    -2.4930     2.1949 C.3     
  10 C10            9.2675    -3.3202     2.0418 C.3     
  11 O11            8.2358    -1.3942     3.0746 O.3     
  12 O12            9.6063    -3.9104     3.2983 O.3     
  13 C13           10.7245    -4.6832     3.3358 C.ar    
  14 C14           11.1111    -5.2864     4.5235 C.ar    
  15 C15           12.2471    -6.0714     4.5616 C.ar    
  16 C16           13.0008    -6.2568     3.4122 C.ar    
  17 C17           12.6137    -5.6544     2.2244 C.ar    
  18 C18           11.4754    -4.8729     2.1852 C.ar    
  19 O19           14.1196    -7.0288     3.4500 O.3     
  20 C20            3.9618    -1.1576     1.6057 C.3     
  21 C21            5.2029    -2.0264     1.3883 C.3     
  22 N22            6.3264    -1.1756     0.9719 N.3     
  23 C23            6.0086    -0.4599    -0.2717 C.3     
  24 C24            4.7675     0.4088    -0.0543 C.3     
  25 C25            1.3870    -1.1767    -1.2060 C.3     
  26 H26           -0.7529     2.3665     0.8878 H       
  27 H27            1.2407     2.9473     2.2092 H       
  28 H28           -0.6846     0.4753    -0.6850 H       
  29 H29            3.3064     1.6320     1.9671 H       
  30 H30            8.3460    -1.3329     0.4151 H       
  31 H31            7.3751    -2.8015     0.1533 H       
  32 H32            7.1988    -3.1192     2.6082 H       
  33 H33            9.1058    -4.1054     1.3033 H       
  34 H34           10.0813    -2.6739     1.7127 H       
  35 H35            8.9295    -0.7937     2.7692 H       
  36 H36           10.5242    -5.1420     5.4185 H       
  37 H37           12.5485    -6.5404     5.4866 H       
  38 H38           13.2006    -5.7987     1.3293 H       
  39 H39           11.1739    -4.4038     1.2603 H       
  40 H40           13.9595    -7.9630     3.2583 H       
  41 H41            4.1567    -0.4372     2.4002 H       
  42 H42            3.1197    -1.7902     1.8866 H       
  43 H43            5.4575    -2.5359     2.3177 H       
  44 H44            4.9988    -2.7646     0.6127 H       
  45 H45            6.8507     0.1726    -0.5526 H       
  46 H46            5.8137    -1.1803    -1.0662 H       
  47 H47            4.5129     0.9183    -0.9837 H       
  48 H48            4.9716     1.1470     0.7213 H       
  49 H49            1.6354    -0.8142    -2.2034 H       
  50 H50            2.1423    -1.8921    -0.8808 H       
  51 H51            0.4117    -1.6631    -1.2286 H       
@<TRIPOS>BOND
   1    1    2 ar
   2    1    3 ar
   3    1   26 1
   4    2    6 ar
   5    2   27 1
   6    3    4 ar
   7    3   28 1
   8    4    5 ar
   9    4   25 1
  10    5    6 ar
  11    5    7 1
  12    6   29 1
  13    7   20 1
  14    7   24 1
  15    8    9 1
  16    8   22 1
  17    8   30 1
  18    8   31 1
  19    9   11 1
  20    9   10 1
  21    9   32 1
  22   10   12 1
  23   10   33 1
  24   10   34 1
  25   11   35 1
  26   12   13 1
  27   13   14 ar
  28   13   18 ar
  29   14   15 ar
  30   14   36 1
  31   15   16 ar
  32   15   37 1
  33   16   17 ar
  34   16   19 1
  35   17   18 ar
  36   17   38 1
  37   18   39 1
  38   19   40 1
  39   20   21 1
  40   20   41 1
  41   20   42 1
  42   21   22 1
  43   21   43 1
  44   21   44 1
  45   22   23 1
  46   23   24 1
  47   23   45 1
  48   23   46 1
  49   24   47 1
  50   24   48 1
  51   25   49 1
  52   25   50 1
  53   25   51 1

#	End of record

