#	Name: ASD05490100
#	Creating user name:	WinNT
#	Creation time:	15. 06. 2019 21:01

#	Modifying user name:	WinNT
#	Modification time:	15. 06. 2019 21:01

#	Program:	/corina/corina34_cracker 3.40 0067  02.08.2006

@<TRIPOS>MOLECULE
ASD05490100
  66   70    0    0    0
SMALL
NO_CHARGES


@<TRIPOS>ATOM
   1 O1            -2.2665     1.8171     0.0253 O.2     
   2 N2            -0.0178     1.4608     0.0101 N.am    
   3 O3             4.5863     2.8160    -0.0274 O.3     
   4 N4             2.8511     4.3367    -0.0019 N.ar    
   5 C5             1.5540     4.6376     0.0121 C.ar    
   6 C6             3.2565     3.0770    -0.0133 C.ar    
   7 N7             2.4054     2.0644    -0.0102 N.ar    
   8 C8             1.0946     2.2826     0.0039 C.ar    
   9 C9             0.6266     3.5971     0.0154 C.ar    
  10 N10            1.1342     5.9598     0.0237 N.pl3   
  11 C11           -1.1223     2.2312     0.0189 C.2     
  12 N12           -0.7663     3.5310     0.0284 N.am    
  13 C13            5.4681     3.9405    -0.0289 C.3     
  14 C14            6.9178     3.4517    -0.0454 C.3     
  15 O15            7.1758     2.7674    -1.2731 O.3     
  16 C16            8.5094     2.2677    -1.3909 C.3     
  17 C17            0.0021    -0.0041     0.0020 C.3     
  18 C18            0.0225    -0.5140     1.4200 C.ar    
  19 C19           -1.1617    -0.5684     2.1586 C.ar    
  20 C20           -1.1396    -1.0413     3.4704 C.ar    
  21 C21            0.0623    -1.4553     4.0339 C.ar    
  22 C22            1.2378    -1.3960     3.2858 C.ar    
  23 C23            1.2106    -0.9320     1.9852 C.ar    
  24 C24            0.0942    -1.9593     5.4294 C.ar    
  25 C25            1.2977    -2.3746     5.9954 C.ar    
  26 C26           -1.0783    -2.0135     6.1801 C.ar    
  27 C27           -1.0429    -2.4831     7.4775 C.ar    
  28 C28            0.1538    -2.8990     8.0328 C.ar    
  29 C29            1.3216    -2.8424     7.2937 C.ar    
  30 C30            0.1863    -3.4098     9.4502 C.3     
  31 N31           -0.0375    -4.8617     9.4527 N.3     
  32 C32            0.2216    -5.4340    10.7866 C.3     
  33 C33           -1.0641    -6.1643    11.2283 C.3     
  34 C34           -1.7838    -6.4491     9.8838 C.3     
  35 C35           -1.4270    -5.1842     9.0638 C.3     
  36 C36           -2.3950    -0.1396     1.5707 C.1     
  37 N37           -3.3734     0.2007     1.1043 N.1     
  38 H38            1.7881     6.6762     0.0216 H       
  39 H39            0.1868     6.1678     0.0339 H       
  40 H40           -1.3727     4.2880     0.0359 H       
  41 H41            5.2796     4.5488    -0.9135 H       
  42 H42            5.2964     4.5381     0.8664 H       
  43 H43            7.5900     4.3052     0.0430 H       
  44 H44            7.0817     2.7720     0.7908 H       
  45 H45            8.7062     1.5635    -0.5826 H       
  46 H46            8.6245     1.7620    -2.3496 H       
  47 H47            9.2146     3.0966    -1.3305 H       
  48 H48           -0.8878    -0.3767    -0.5053 H       
  49 H49            0.8920    -0.3525    -0.5222 H       
  50 H50           -2.0522    -1.0853     4.0464 H       
  51 H51            2.1714    -1.7176     3.7234 H       
  52 H52            2.1240    -0.8885     1.4105 H       
  53 H53            2.2101    -2.3308     5.4193 H       
  54 H54           -2.0130    -1.6883     5.7478 H       
  55 H55           -1.9511    -2.5255     8.0604 H       
  56 H56            2.2532    -3.1688     7.7320 H       
  57 H57            1.1581    -3.1913     9.8929 H       
  58 H58           -0.5958    -2.9206    10.0307 H       
  59 H59            1.0495    -6.1408    10.7324 H       
  60 H60            0.4567    -4.6374    11.4925 H       
  61 H61           -0.8218    -7.0954    11.7406 H       
  62 H62           -1.6738    -5.5213    11.8631 H       
  63 H63           -1.3856    -7.3465     9.4103 H       
  64 H64           -2.8612    -6.5304    10.0272 H       
  65 H65           -2.0943    -4.3626     9.3240 H       
  66 H66           -1.4828    -5.3959     7.9960 H       
@<TRIPOS>BOND
   1    1   11 2
   2    2   17 1
   3    2    8 1
   4    2   11 am
   5    3   13 1
   6    3    6 1
   7    4    5 ar
   8    4    6 ar
   9    5   10 1
  10    5    9 ar
  11    6    7 ar
  12    7    8 ar
  13    8    9 ar
  14    9   12 1
  15   10   38 1
  16   10   39 1
  17   11   12 am
  18   12   40 1
  19   13   14 1
  20   13   41 1
  21   13   42 1
  22   14   15 1
  23   14   43 1
  24   14   44 1
  25   15   16 1
  26   16   45 1
  27   16   46 1
  28   16   47 1
  29   17   18 1
  30   17   48 1
  31   17   49 1
  32   18   19 ar
  33   18   23 ar
  34   19   20 ar
  35   19   36 1
  36   20   21 ar
  37   20   50 1
  38   21   22 ar
  39   21   24 1
  40   22   23 ar
  41   22   51 1
  42   23   52 1
  43   24   25 ar
  44   24   26 ar
  45   25   29 ar
  46   25   53 1
  47   26   27 ar
  48   26   54 1
  49   27   28 ar
  50   27   55 1
  51   28   29 ar
  52   28   30 1
  53   29   56 1
  54   30   31 1
  55   30   57 1
  56   30   58 1
  57   31   32 1
  58   31   35 1
  59   32   33 1
  60   32   59 1
  61   32   60 1
  62   33   34 1
  63   33   61 1
  64   33   62 1
  65   34   35 1
  66   34   63 1
  67   34   64 1
  68   35   65 1
  69   35   66 1
  70   36   37 3

#	End of record

