#	Name: ASD01812586
#	Creating user name:	WinNT
#	Creation time:	15. 06. 2019 19:28

#	Modifying user name:	WinNT
#	Modification time:	15. 06. 2019 19:28

#	Program:	/corina/corina34_cracker 3.40 0067  02.08.2006

@<TRIPOS>MOLECULE
ASD01812586
  66   70    0    0    0
SMALL
NO_CHARGES


@<TRIPOS>ATOM
   1 O1             0.0032     1.1015    -0.0358 O.3     
   2 C2             0.0234    -0.3198    -0.1823 C.3     
   3 H3             0.5284    -0.5821    -1.1120 H       
   4 C4             0.7712    -0.9435     0.9978 C.3     
   5 C5             0.7929    -2.4653     0.8409 C.3     
   6 C6            -0.6421    -2.9952     0.8090 C.3     
   7 C7            -1.3899    -2.3714    -0.3711 C.3     
   8 C8            -1.4115    -0.8497    -0.2143 C.3     
   9 H9            -1.9165    -0.5874     0.7154 H       
  10 N10           -2.1276    -0.2524    -1.3443 N.am    
  11 C11           -3.4707    -0.1456    -1.3104 C.2     
  12 O12           -4.0876    -0.5446    -0.3427 O.2     
  13 C13           -4.1954     0.4589    -2.4540 C.ar    
  14 C14           -5.5925     0.5673    -2.3995 C.ar    
  15 C15           -6.2718     1.1225    -3.4458 C.ar    
  16 C16           -7.7729     1.2513    -3.4122 C.3     
  17 N17           -8.1388     2.6549    -3.1804 N.3     
  18 C18           -7.4378     3.1949    -2.0085 C.3     
  19 C19           -7.7287     4.6922    -1.8835 C.3     
  20 C20           -9.2385     4.9036    -1.7406 C.3     
  21 C21           -9.9487     4.2896    -2.9503 C.3     
  22 C22           -9.5934     2.8040    -3.0444 C.3     
  23 C23           -9.7122     4.2515    -0.5089 C.1     
  24 N24          -10.0777     3.7482     0.4417 N.1     
  25 C25           -9.5366     6.3794    -1.6773 C.ar    
  26 C26          -10.8334     6.8225    -1.8549 C.ar    
  27 C27          -11.0972     8.1825    -1.7943 C.ar    
  28 C28          -10.0418     9.0493    -1.5562 C.ar    
  29 C29           -8.7707     8.5327    -1.3884 C.ar    
  30 N30           -8.5577     7.2328    -1.4476 N.ar    
  31 C31           -5.5330     1.5715    -4.5560 C.ar    
  32 C32           -6.1663     2.1529    -5.6664 C.ar    
  33 C33           -5.4191     2.5762    -6.7226 C.ar    
  34 C34           -4.0313     2.4406    -6.7186 C.ar    
  35 C35           -3.3833     1.8827    -5.6611 C.ar    
  36 C36           -4.1203     1.4325    -4.5487 C.ar    
  37 N37           -3.5107     0.8871    -3.4969 N.ar    
  38 H38            0.8808     1.5066    -0.0080 H       
  39 H39            1.7935    -0.5660     1.0205 H       
  40 H40            0.2663    -0.6812     1.9274 H       
  41 H41            1.2979    -2.7276    -0.0888 H       
  42 H42            1.3257    -2.9097     1.6816 H       
  43 H43           -0.6266    -4.0793     0.6972 H       
  44 H44           -1.1470    -2.7329     1.7386 H       
  45 H45           -0.8849    -2.6337    -1.3008 H       
  46 H46           -2.4122    -2.7489    -0.3939 H       
  47 H47           -1.6350     0.0662    -2.1168 H       
  48 H48           -6.1297     0.2124    -1.5324 H       
  49 H49           -8.1873     0.9202    -4.3644 H       
  50 H50           -8.1726     0.6339    -2.6077 H       
  51 H51           -7.7825     2.6818    -1.1107 H       
  52 H52           -6.3649     3.0419    -2.1247 H       
  53 H53           -7.2209     5.0894    -1.0046 H       
  54 H54           -7.3718     5.2079    -2.7749 H       
  55 H55          -11.0268     4.3992    -2.8336 H       
  56 H56           -9.6266     4.7990    -3.8585 H       
  57 H57          -10.0860     2.3670    -3.9129 H       
  58 H58           -9.9280     2.2927    -2.1418 H       
  59 H59          -11.6314     6.1184    -2.0389 H       
  60 H60          -12.1009     8.5576    -1.9296 H       
  61 H61          -10.2105    10.1147    -1.5029 H       
  62 H62           -7.9430     9.2013    -1.2029 H       
  63 H63           -7.2405     2.2632    -5.6826 H       
  64 H64           -5.9079     3.0231    -7.5757 H       
  65 H65           -3.4616     2.7839    -7.5695 H       
  66 H66           -2.3078     1.7849    -5.6745 H       
@<TRIPOS>BOND
   1    1    2 1
   2    1   38 1
   3    2    3 1
   4    2    8 1
   5    2    4 1
   6    4    5 1
   7    4   39 1
   8    4   40 1
   9    5    6 1
  10    5   41 1
  11    5   42 1
  12    6    7 1
  13    6   43 1
  14    6   44 1
  15    7    8 1
  16    7   45 1
  17    7   46 1
  18    8    9 1
  19    8   10 1
  20   10   11 am
  21   10   47 1
  22   11   12 2
  23   11   13 1
  24   13   37 ar
  25   13   14 ar
  26   14   15 ar
  27   14   48 1
  28   15   16 1
  29   15   31 ar
  30   16   17 1
  31   16   49 1
  32   16   50 1
  33   17   22 1
  34   17   18 1
  35   18   19 1
  36   18   51 1
  37   18   52 1
  38   19   20 1
  39   19   53 1
  40   19   54 1
  41   20   21 1
  42   20   23 1
  43   20   25 1
  44   21   22 1
  45   21   55 1
  46   21   56 1
  47   22   57 1
  48   22   58 1
  49   23   24 3
  50   25   30 ar
  51   25   26 ar
  52   26   27 ar
  53   26   59 1
  54   27   28 ar
  55   27   60 1
  56   28   29 ar
  57   28   61 1
  58   29   30 ar
  59   29   62 1
  60   31   36 ar
  61   31   32 ar
  62   32   33 ar
  63   32   63 1
  64   33   34 ar
  65   33   64 1
  66   34   35 ar
  67   34   65 1
  68   35   36 ar
  69   35   66 1
  70   36   37 ar

#	End of record

