#	Name: ASD03081156
#	Creating user name:	WinNT
#	Creation time:	15. 06. 2019 20:27

#	Modifying user name:	WinNT
#	Modification time:	15. 06. 2019 20:27

#	Program:	/corina/corina34_cracker 3.40 0067  02.08.2006

@<TRIPOS>MOLECULE
ASD03081156
  28   31    0    0    0
SMALL
NO_CHARGES


@<TRIPOS>ATOM
   1 O1            -0.0144     1.2085     0.0087 O.3     
   2 N2             0.0021    -0.0041     0.0020 N.2     
   3 C3             1.2348    -0.4424    -0.0121 C.2     
   4 N4             2.0460     0.6359    -0.0141 N.2     
   5 C5             1.2413     1.6828    -0.0008 C.2     
   6 C6             3.0151    -2.1962    -0.0374 C.ar    
   7 C7             1.6622    -1.8639    -0.0231 C.ar    
   8 C8             0.7143    -2.8902    -0.0188 C.ar    
   9 C9             1.1641    -4.1997    -0.0290 C.ar    
  10 C10            2.5243    -4.4475    -0.0429 C.ar    
  11 N11            3.3958    -3.4571    -0.0467 N.ar    
  12 C12            2.3850     5.7519     0.0102 C.2     
  13 C13            3.3833     4.7560    -0.0043 C.2     
  14 C14            3.0203     3.4488    -0.0088 C.2     
  15 C15            1.6455     3.1035     0.0030 C.2     
  16 C16            0.6955     4.0825     0.0174 C.2     
  17 N17            1.0586     5.3931     0.0210 N.pl3   
  18 N18            1.2245     7.5393     0.0332 N.2     
  19 N19            2.4238     7.0736     0.0229 N.2     
  20 C20            0.3573     6.5607     0.0340 C.2     
  21 H21            3.7584    -1.4127    -0.0453 H       
  22 H22           -0.3425    -2.6678    -0.0075 H       
  23 H23            0.4601    -5.0187    -0.0257 H       
  24 H24            2.8788    -5.4676    -0.0506 H       
  25 H25            4.4275     5.0315    -0.0132 H       
  26 H26            3.7744     2.6757    -0.0202 H       
  27 H27           -0.3509     3.8152     0.0260 H       
  28 H28           -0.7180     6.6600     0.0444 H       
@<TRIPOS>BOND
   1    1    2 1
   2    1    5 1
   3    2    3 2
   4    3    4 1
   5    3    7 1
   6    4    5 2
   7    5   15 1
   8    6    7 ar
   9    6   11 ar
  10    6   21 1
  11    7    8 ar
  12    8    9 ar
  13    8   22 1
  14    9   10 ar
  15    9   23 1
  16   10   11 ar
  17   10   24 1
  18   12   13 1
  19   12   17 1
  20   12   19 2
  21   13   14 2
  22   13   25 1
  23   14   15 1
  24   14   26 1
  25   15   16 2
  26   16   17 1
  27   16   27 1
  28   17   20 1
  29   18   19 1
  30   18   20 2
  31   20   28 1

#	End of record

