#	Name: ASD03330872
#	Creating user name:	WinNT
#	Creation time:	15. 06. 2019 20:38

#	Modifying user name:	WinNT
#	Modification time:	15. 06. 2019 20:38

#	Program:	/corina/corina34_cracker 3.40 0067  02.08.2006

@<TRIPOS>MOLECULE
ASD03330872
  60   62    0    0    0
SMALL
NO_CHARGES


@<TRIPOS>ATOM
   1 N1             0.1555     0.9734    -0.0291 N.pl3   
   2 C2             0.0399    -0.3635     0.1899 C.2     
   3 C3             1.1633    -1.2900     0.5756 C.3     
   4 N4             1.9338    -0.6832     1.6723 N.3     
   5 C5             3.0086     0.1676     1.1578 C.3     
   6 C6             2.5912     0.8477    -0.1429 C.3     
   7 C7             1.3860     1.7572     0.1111 C.3     
   8 C8            -1.0771     1.4370    -0.3863 C.2     
   9 N9            -1.9226     0.4334    -0.3713 N.2     
  10 C10           -1.2652    -0.6924    -0.0167 C.2     
  11 C11           -1.8549    -2.0357     0.1217 C.2     
  12 O12           -1.1560    -2.9759     0.4488 O.2     
  13 N13           -3.1686    -2.2226    -0.1143 N.am    
  14 C14            2.4642    -1.7129     2.5757 C.3     
  15 C15           -4.9880    -3.6564    -0.8372 C.2     
  16 C16           -3.7548    -3.5581     0.0233 C.3     
  17 C17           -4.1329    -3.8009     1.4859 C.3     
  18 C18           -5.2012    -2.7914     1.9109 C.3     
  19 O19           -5.6235    -2.6581    -1.1027 O.2     
  20 N20           -5.3848    -4.8538    -1.3119 N.am    
  21 C21           -6.6411    -4.9667    -2.0570 C.3     
  22 C22           -4.6818    -5.2205     1.6419 C.3     
  23 C23           -2.8937    -3.6335     2.3675 C.3     
  24 C24           -1.4056     2.8370    -0.7322 C.ar    
  25 C25           -2.1809     3.1178    -1.8605 C.ar    
  26 C26           -2.4843     4.4286    -2.1772 C.ar    
  27 C27           -2.0218     5.4600    -1.3805 C.ar    
  28 C28           -1.2530     5.1877    -0.2619 C.ar    
  29 C29           -0.9478     3.8825     0.0695 C.ar    
  30 F30           -2.6323     2.1108    -2.6399 F       
  31 Br31          -0.6259     6.6065     0.8195 Br      
  32 H32            0.7519    -2.2445     0.9040 H       
  33 H33            1.8154    -1.4493    -0.2831 H       
  34 H34            3.2483     0.9296     1.8994 H       
  35 H35            3.8925    -0.4434     0.9749 H       
  36 H36            3.4211     1.4435    -0.5229 H       
  37 H37            2.3241     0.0893    -0.8789 H       
  38 H38            1.3843     2.5710    -0.6140 H       
  39 H39            1.4445     2.1665     1.1197 H       
  40 H40           -3.7259    -1.4728    -0.3752 H       
  41 H41            3.0618    -2.4240     2.0052 H       
  42 H42            3.0873    -1.2428     3.3365 H       
  43 H43            1.6372    -2.2361     3.0558 H       
  44 H44           -3.0298    -4.3076    -0.2938 H       
  45 H45           -6.0841    -2.9107     1.2828 H       
  46 H46           -5.4705    -2.9644     2.9528 H       
  47 H47           -4.8102    -1.7801     1.7997 H       
  48 H48           -4.8385    -5.6409    -1.1602 H       
  49 H49           -7.4689    -4.6469    -1.4241 H       
  50 H50           -6.5959    -4.3339    -2.9434 H       
  51 H51           -6.7932    -6.0032    -2.3579 H       
  52 H52           -3.8997    -5.9408     1.4022 H       
  53 H53           -5.0122    -5.3714     2.6696 H       
  54 H54           -5.5246    -5.3606     0.9650 H       
  55 H55           -2.5026    -2.6222     2.2564 H       
  56 H56           -3.1630    -3.8065     3.4095 H       
  57 H57           -2.1326    -4.3527     2.0648 H       
  58 H58           -3.0833     4.6477    -3.0488 H       
  59 H59           -2.2612     6.4826    -1.6323 H       
  60 H60           -0.3517     3.6719     0.9451 H       
@<TRIPOS>BOND
   1    1    2 1
   2    1    7 1
   3    1    8 1
   4    2    3 1
   5    2   10 2
   6    3    4 1
   7    3   32 1
   8    3   33 1
   9    4    5 1
  10    4   14 1
  11    5    6 1
  12    5   34 1
  13    5   35 1
  14    6    7 1
  15    6   36 1
  16    6   37 1
  17    7   38 1
  18    7   39 1
  19    8    9 2
  20    8   24 1
  21    9   10 1
  22   10   11 1
  23   11   12 2
  24   11   13 am
  25   13   16 1
  26   13   40 1
  27   14   41 1
  28   14   42 1
  29   14   43 1
  30   15   19 2
  31   15   20 am
  32   15   16 1
  33   16   17 1
  34   16   44 1
  35   17   18 1
  36   17   22 1
  37   17   23 1
  38   18   45 1
  39   18   46 1
  40   18   47 1
  41   20   21 1
  42   20   48 1
  43   21   49 1
  44   21   50 1
  45   21   51 1
  46   22   52 1
  47   22   53 1
  48   22   54 1
  49   23   55 1
  50   23   56 1
  51   23   57 1
  52   24   25 ar
  53   24   29 ar
  54   25   26 ar
  55   25   30 1
  56   26   27 ar
  57   26   58 1
  58   27   28 ar
  59   27   59 1
  60   28   29 ar
  61   28   31 1
  62   29   60 1

#	End of record

