#	Name: ASD01918012
#	Creating user name:	WinNT
#	Creation time:	15. 06. 2019 20:10

#	Modifying user name:	WinNT
#	Modification time:	15. 06. 2019 20:10

#	Program:	/corina/corina34_cracker 3.40 0067  02.08.2006

@<TRIPOS>MOLECULE
ASD01918012
  42   45    0    0    0
SMALL
NO_CHARGES


@<TRIPOS>ATOM
   1 N1             4.8243    -0.4051    -2.1403 N.ar    
   2 C2             5.2898     0.2906    -3.1585 C.ar    
   3 C3             5.1751     1.6735    -3.1863 C.ar    
   4 C4             4.5597     2.3226    -2.1225 C.ar    
   5 C5             4.0814     1.5531    -1.0675 C.ar    
   6 C6             4.2347     0.1746    -1.1135 C.ar    
   7 O7             3.4725     2.1431    -0.0056 O.3     
   8 C8             3.4500     3.5024     0.0436 C.2     
   9 N9             2.1933     5.5149    -0.0223 N.pl3   
  10 C10            2.2668     4.1545    -0.0657 C.2     
  11 C11            4.6495     4.2063     0.2122 C.2     
  12 C12            4.6212     5.5944     0.2622 C.2     
  13 C13            3.3267     6.2694     0.1354 C.2     
  14 C14            5.8610     6.3681     0.4387 C.2     
  15 N15            5.8144     7.7142     0.4849 N.am    
  16 C16            6.9713     8.4428     0.7575 C.ar    
  17 N17            8.1317     7.8146     0.8624 N.ar    
  18 C18            6.8958     9.8223     0.9106 C.ar    
  19 C19            8.0512    10.5344     1.1805 C.ar    
  20 C20            9.2490     9.8378     1.2884 C.ar    
  21 C21            9.2504     8.4650     1.1189 C.ar    
  22 O22            6.9275     5.7925     0.5428 O.2     
  23 C23            1.1424     6.3893    -0.1078 C.2     
  24 C24            1.6523     7.6355    -0.0097 C.2     
  25 N25            2.9774     7.5430     0.1431 N.2     
  26 O26            5.6585     2.3835    -4.2396 O.3     
  27 C27            6.2775     1.6418    -5.2926 C.3     
  28 F28           10.3999    10.4948     1.5509 F       
  29 H29            5.7666    -0.2217    -3.9810 H       
  30 H30            4.4558     3.3976    -2.1153 H       
  31 H31            3.8666    -0.4306    -0.2983 H       
  32 H32            1.3597     3.5819    -0.1907 H       
  33 H33            5.5859     3.6757     0.3026 H       
  34 H34            4.9759     8.1762     0.3286 H       
  35 H35            5.9478    10.3317     0.8198 H       
  36 H36            8.0229    11.6069     1.3040 H       
  37 H37           10.1788     7.9189     1.1975 H       
  38 H38            0.1018     6.1306    -0.2361 H       
  39 H39            1.0840     8.5533    -0.0411 H       
  40 H40            6.6183     2.3275    -6.0683 H       
  41 H41            7.1294     1.0896    -4.8959 H       
  42 H42            5.5569     0.9426    -5.7168 H       
@<TRIPOS>BOND
   1    1    2 ar
   2    1    6 ar
   3    2    3 ar
   4    2   29 1
   5    3    4 ar
   6    3   26 1
   7    4    5 ar
   8    4   30 1
   9    5    6 ar
  10    5    7 1
  11    6   31 1
  12    7    8 1
  13    8   11 1
  14    8   10 2
  15    9   10 1
  16    9   23 1
  17    9   13 1
  18   10   32 1
  19   11   12 2
  20   11   33 1
  21   12   13 1
  22   12   14 1
  23   13   25 2
  24   14   15 am
  25   14   22 2
  26   15   16 1
  27   15   34 1
  28   16   18 ar
  29   16   17 ar
  30   17   21 ar
  31   18   19 ar
  32   18   35 1
  33   19   20 ar
  34   19   36 1
  35   20   21 ar
  36   20   28 1
  37   21   37 1
  38   23   24 2
  39   23   38 1
  40   24   25 1
  41   24   39 1
  42   26   27 1
  43   27   40 1
  44   27   41 1
  45   27   42 1

#	End of record

