#	Name: ASD03090445
#	Creating user name:	WinNT
#	Creation time:	15. 06. 2019 20:28

#	Modifying user name:	WinNT
#	Modification time:	15. 06. 2019 20:28

#	Program:	/corina/corina34_cracker 3.40 0067  02.08.2006

@<TRIPOS>MOLECULE
ASD03090445
  41   43    0    0    0
SMALL
NO_CHARGES


@<TRIPOS>ATOM
   1 C1            -0.0169     1.3956     0.0097 C.ar    
   2 C2             0.0021    -0.0041     0.0020 C.ar    
   3 C3             1.2332    -0.6365    -0.0131 C.ar    
   4 C4             2.3778     0.1582    -0.0198 C.ar    
   5 N5             2.2662     1.4802    -0.0116 N.ar    
   6 N6             1.1263     2.0702     0.0024 N.ar    
   7 C7            -1.3065     2.1204     0.0198 C.2     
   8 O8            -2.3520     1.5005     0.0213 O.2     
   9 N9            -1.3221     3.4680     0.0272 N.am    
  10 O10            3.6040    -0.4187    -0.0342 O.3     
  11 C11            4.7331     0.4572    -0.0403 C.3     
  12 C12            6.0201    -0.3700    -0.0564 C.3     
  13 C13            7.2290     0.5678    -0.0630 C.3     
  14 C14           -2.5991     4.1858     0.0371 C.3     
  15 N15           -1.8143     8.6330     2.2577 N.pl3   
  16 C16           -1.6019     9.8721     1.7174 C.2     
  17 C17           -1.6219     9.7964     0.3773 C.2     
  18 C18           -1.8672     8.3943     0.0312 C.ar    
  19 C19           -1.9939     7.6999    -1.1736 C.ar    
  20 C20           -2.2288     6.3540    -1.1592 C.ar    
  21 C21           -2.3409     5.6705     0.0439 C.ar    
  22 C22           -2.2188     6.3358     1.2439 C.ar    
  23 C23           -1.9804     7.7064     1.2530 C.ar    
  24 H24           -0.9158    -0.5731     0.0081 H       
  25 H25            1.3046    -1.7142    -0.0193 H       
  26 H26           -0.4877     3.9627     0.0259 H       
  27 H27            4.6969     1.0903    -0.9268 H       
  28 H28            4.7135     1.0813     0.8531 H       
  29 H29            6.0562    -1.0032     0.8300 H       
  30 H30            6.0396    -0.9942    -0.9498 H       
  31 H31            7.2095     1.1920     0.8304 H       
  32 H32            8.1459    -0.0215    -0.0745 H       
  33 H33            7.1929     1.2010    -0.9495 H       
  34 H34           -3.1718     3.9207    -0.8516 H       
  35 H35           -3.1634     3.9111     0.9283 H       
  36 H36           -1.8400     8.4361     3.2072 H       
  37 H37           -1.4423    10.7769     2.2850 H       
  38 H38           -1.4835    10.6142    -0.3145 H       
  39 H39           -1.9079     8.2250    -2.1134 H       
  40 H40           -2.3271     5.8175    -2.0913 H       
  41 H41           -2.3079     5.7952     2.1746 H       
@<TRIPOS>BOND
   1    1    2 ar
   2    1    6 ar
   3    1    7 1
   4    2    3 ar
   5    2   24 1
   6    3    4 ar
   7    3   25 1
   8    4    5 ar
   9    4   10 1
  10    5    6 ar
  11    7    8 2
  12    7    9 am
  13    9   14 1
  14    9   26 1
  15   10   11 1
  16   11   12 1
  17   11   27 1
  18   11   28 1
  19   12   13 1
  20   12   29 1
  21   12   30 1
  22   13   31 1
  23   13   32 1
  24   13   33 1
  25   14   21 1
  26   14   34 1
  27   14   35 1
  28   15   16 1
  29   15   23 1
  30   15   36 1
  31   16   17 2
  32   16   37 1
  33   17   18 1
  34   17   38 1
  35   18   19 ar
  36   18   23 ar
  37   19   20 ar
  38   19   39 1
  39   20   21 ar
  40   20   40 1
  41   21   22 ar
  42   22   23 ar
  43   22   41 1

#	End of record

