#	Name: ASD08150069
#	Creating user name:	WinNT
#	Creation time:	15. 06. 2019 21:15

#	Modifying user name:	WinNT
#	Modification time:	15. 06. 2019 21:15

#	Program:	/corina/corina34_cracker 3.40 0067  02.08.2006

@<TRIPOS>MOLECULE
ASD08150069
  54   57    0    0    0
SMALL
NO_CHARGES


@<TRIPOS>ATOM
   1 C1            -0.0143     1.2041     0.0087 C.2     
   2 O2             0.0021    -0.0041     0.0020 O.2     
   3 O3             1.1389     1.8910     0.0013 O.3     
   4 C4             1.0432     3.3398     0.0100 C.3     
   5 O5             3.0404     5.8763     1.2244 O.3     
   6 C6             3.4479     4.7834     1.8792 C.2     
   7 N7             3.1529     3.6355     1.2541 N.am    
   8 C8             2.4489     3.9438    -0.0001 C.3     
   9 C9             2.3767     5.4829    -0.0116 C.3     
  10 O10            4.0325     4.8276     2.9434 O.2     
  11 C11            0.9202     5.9515    -0.0108 C.3     
  12 C12            3.4986     0.0743     1.3963 C.ar    
  13 N13            4.0486    -0.1328     2.5824 N.ar    
  14 C14            4.3316     0.8887     3.3907 C.ar    
  15 C15            4.0400     2.1858     2.9702 C.ar    
  16 C16            3.4618     2.3605     1.7158 C.ar    
  17 N17            3.2084     1.2927     0.9652 N.ar    
  18 C18            6.0608     0.2160     7.1176 C.ar    
  19 N19            5.7907    -0.8206     6.3363 N.ar    
  20 C20            5.2422    -0.6483     5.1474 C.ar    
  21 C21            4.9470     0.6492     4.7177 C.ar    
  22 C22            5.2473     1.7146     5.5713 C.ar    
  23 N23            5.7958     1.4604     6.7458 N.ar    
  24 C24            4.9393    -1.8327     4.2663 C.3     
  25 F25            5.2189    -3.0144     4.9611 F       
  26 F26            3.5877    -1.8124     3.9059 F       
  27 F27            5.7302    -1.7711     3.1139 F       
  28 N28            3.2246    -1.0111     0.5824 N.3     
  29 C29            3.6216    -2.2694     1.2307 C.3     
  30 C30            3.2471    -3.4447     0.3239 C.3     
  31 O31            3.8698    -3.2731    -0.9521 O.3     
  32 C32            3.5049    -2.0579    -1.6120 C.3     
  33 C33            3.8820    -0.8685    -0.7249 C.3     
  34 N34            6.6298    -0.0077     8.3572 N.pl3   
  35 H35           -0.9568     1.7313     0.0160 H       
  36 H36            0.4981     3.6732    -0.8730 H       
  37 H37            0.5151     3.6637     0.9069 H       
  38 H38            3.0165     3.5807    -0.8570 H       
  39 H39            2.9077     5.8840    -0.8749 H       
  40 H40            0.8885     7.0392     0.0520 H       
  41 H41            0.4334     5.6263    -0.9303 H       
  42 H42            0.4010     5.5228     0.8464 H       
  43 H43            4.2570     3.0341     3.6023 H       
  44 H44            5.0338     2.7310     5.2749 H       
  45 H45            4.6986    -2.2682     1.3989 H       
  46 H46            3.1037    -2.3664     2.1849 H       
  47 H47            3.5909    -4.3759     0.7744 H       
  48 H48            2.1648    -3.4777     0.1992 H       
  49 H49            4.0350    -1.9861    -2.5617 H       
  50 H50            2.4300    -2.0506    -1.7930 H       
  51 H51            3.5541     0.0570    -1.1982 H       
  52 H52            4.9631    -0.8449    -0.5879 H       
  53 H53            6.8258    -0.9132     8.6446 H       
  54 H54            6.8330     0.7407     8.9398 H       
@<TRIPOS>BOND
   1    1    2 2
   2    1    3 1
   3    1   35 1
   4    3    4 1
   5    4    8 1
   6    4   36 1
   7    4   37 1
   8    5    6 1
   9    5    9 1
  10    6    7 am
  11    6   10 2
  12    7    8 1
  13    7   16 1
  14    8    9 1
  15    8   38 1
  16    9   11 1
  17    9   39 1
  18   11   40 1
  19   11   41 1
  20   11   42 1
  21   12   13 ar
  22   12   17 ar
  23   12   28 1
  24   13   14 ar
  25   14   15 ar
  26   14   21 1
  27   15   16 ar
  28   15   43 1
  29   16   17 ar
  30   18   19 ar
  31   18   23 ar
  32   18   34 1
  33   19   20 ar
  34   20   21 ar
  35   20   24 1
  36   21   22 ar
  37   22   23 ar
  38   22   44 1
  39   24   25 1
  40   24   26 1
  41   24   27 1
  42   28   29 1
  43   28   33 1
  44   29   30 1
  45   29   45 1
  46   29   46 1
  47   30   31 1
  48   30   47 1
  49   30   48 1
  50   31   32 1
  51   32   33 1
  52   32   49 1
  53   32   50 1
  54   33   51 1
  55   33   52 1
  56   34   53 1
  57   34   54 1

#	End of record

