#	Name: ASD02030381
#	Creating user name:	WinNT
#	Creation time:	15. 06. 2019 20:15

#	Modifying user name:	WinNT
#	Modification time:	15. 06. 2019 20:15

#	Program:	/corina/corina34_cracker 3.40 0067  02.08.2006

@<TRIPOS>MOLECULE
ASD02030381
  51   54    0    0    0
SMALL
NO_CHARGES


@<TRIPOS>ATOM
   1 C1             0.1732     1.6914     1.3608 C.2     
   2 O2             0.2773     0.4810     1.3171 O.2     
   3 N3             3.3027     3.0898     2.2774 N.pl3   
   4 N4             2.5221     2.0815     2.0920 N.2     
   5 C5             1.3511     2.5233     1.6864 C.2     
   6 N6             1.4148     3.8658     1.6194 N.2     
   7 C7             2.6215     4.2166     1.9848 C.2     
   8 C8             4.6325     3.0267     2.7149 C.ar    
   9 C9             5.2171     1.7973     2.9887 C.ar    
  10 C10            6.5290     1.7385     3.4196 C.ar    
  11 C11            7.2592     2.9037     3.5784 C.ar    
  12 C12            6.6787     4.1286     3.3067 C.ar    
  13 C13            5.3698     4.1929     2.8699 C.ar    
  14 Cl14           7.2614     0.2024     3.7624 Cl      
  15 N15           -1.0147     2.2753     1.1071 N.am    
  16 C16           -2.1582     1.4751     0.6466 C.3     
  17 C17           -3.3372     1.7120     1.5986 C.3     
  18 N18           -3.5123     3.1601     1.7779 N.am    
  19 C19           -2.3688     3.9603     2.2384 C.3     
  20 C20           -1.1915     3.7225     1.2917 C.3     
  21 C21           -2.5477     1.9036    -0.7696 C.3     
  22 C22           -1.7830    -0.0081     0.6532 C.3     
  23 C23           -4.7003     3.7440     1.5242 C.2     
  24 O24           -5.6688     3.0602     1.2579 O.2     
  25 C25           -4.8253     5.2197     1.5699 C.ar    
  26 C26           -6.0750     5.8008     1.7708 C.ar    
  27 C27           -6.1768     7.1827     1.8113 C.ar    
  28 C28           -5.0247     7.9356     1.6494 C.ar    
  29 C29           -3.8130     7.2903     1.4531 C.ar    
  30 N30           -3.7445     5.9764     1.4244 N.ar    
  31 Br31          -2.2372     8.3117     1.2308 Br      
  32 H32            3.0026     5.2255     2.0422 H       
  33 H33            4.6472     0.8883     2.8655 H       
  34 H34            8.2841     2.8558     3.9155 H       
  35 H35            7.2506     5.0361     3.4322 H       
  36 H36            4.9188     5.1500     2.6533 H       
  37 H37           -4.2440     1.2840     1.1715 H       
  38 H38           -3.1286     1.2467     2.5620 H       
  39 H39           -2.6362     5.0170     2.2337 H       
  40 H40           -2.0913     3.6550     3.2473 H       
  41 H41           -0.2858     4.1497     1.7223 H       
  42 H42           -1.3985     4.1914     0.3298 H       
  43 H43           -1.7034     1.7485    -1.4412 H       
  44 H44           -3.3958     1.3088    -1.1088 H       
  45 H45           -2.8214     2.9587    -0.7676 H       
  46 H46           -1.4774    -0.3012     1.6576 H       
  47 H47           -2.6442    -0.6022     0.3476 H       
  48 H48           -0.9599    -0.1777    -0.0409 H       
  49 H49           -6.9526     5.1834     1.8930 H       
  50 H50           -7.1325     7.6617     1.9652 H       
  51 H51           -5.0701     9.0144     1.6754 H       
@<TRIPOS>BOND
   1    1    2 2
   2    1    5 1
   3    1   15 am
   4    3    4 1
   5    3    7 1
   6    3    8 1
   7    4    5 2
   8    5    6 1
   9    6    7 2
  10    7   32 1
  11    8    9 ar
  12    8   13 ar
  13    9   10 ar
  14    9   33 1
  15   10   11 ar
  16   10   14 1
  17   11   12 ar
  18   11   34 1
  19   12   13 ar
  20   12   35 1
  21   13   36 1
  22   15   16 1
  23   15   20 1
  24   16   17 1
  25   16   21 1
  26   16   22 1
  27   17   18 1
  28   17   37 1
  29   17   38 1
  30   18   19 1
  31   18   23 am
  32   19   20 1
  33   19   39 1
  34   19   40 1
  35   20   41 1
  36   20   42 1
  37   21   43 1
  38   21   44 1
  39   21   45 1
  40   22   46 1
  41   22   47 1
  42   22   48 1
  43   23   24 2
  44   23   25 1
  45   25   26 ar
  46   25   30 ar
  47   26   27 ar
  48   26   49 1
  49   27   28 ar
  50   27   50 1
  51   28   29 ar
  52   28   51 1
  53   29   30 ar
  54   29   31 1

#	End of record

