#	Name: ASD08170381
#	Creating user name:	WinNT
#	Creation time:	15. 06. 2019 21:17

#	Modifying user name:	WinNT
#	Modification time:	15. 06. 2019 21:17

#	Program:	/corina/corina34_cracker 3.40 0067  02.08.2006

@<TRIPOS>MOLECULE
ASD08170381
  56   59    0    0    0
SMALL
NO_CHARGES


@<TRIPOS>ATOM
   1 C1            -0.0167     1.3781     0.0096 C.ar    
   2 C2             0.0021    -0.0041     0.0020 C.ar    
   3 C3            -1.2926    -0.7753     0.0103 C.3     
   4 C4            -1.7378    -1.0247    -1.4077 C.2     
   5 N5            -2.8786    -1.7014    -1.6467 N.am    
   6 C6            -3.2894    -1.9316    -2.9553 C.2     
   7 S7            -4.7075    -2.7710    -3.4236 S.3     
   8 C8            -4.2849    -2.5006    -5.1147 C.2     
   9 C9            -5.0764    -2.9582    -6.3128 C.3     
  10 C10           -4.6065    -4.3526    -6.7321 C.3     
  11 S11           -5.5592    -4.9034    -8.1742 S.3     
  12 C12           -4.8697    -6.5461    -8.5156 C.3     
  13 C13           -5.5692    -7.1468    -9.7076 C.2     
  14 S14           -7.0211    -8.1477    -9.6666 S.3     
  15 C15           -6.9601    -8.2722   -11.3741 C.2     
  16 N16           -7.8612    -8.9730   -12.1685 N.am    
  17 C17           -7.7041    -8.9951   -13.5069 C.2     
  18 C18           -8.6805    -9.7545   -14.3677 C.3     
  19 C19           -8.2834    -9.6211   -15.8152 C.ar    
  20 O20           -1.0695    -0.6164    -2.3338 O.2     
  21 N21           -2.6645    -1.5410    -4.0248 N.2     
  22 N22           -3.1725    -1.8378    -5.1418 N.2     
  23 N23           -5.2156    -7.0161   -10.9468 N.2     
  24 N24           -5.9330    -7.6033   -11.8038 N.2     
  25 O25           -6.7770    -8.4038   -14.0185 O.2     
  26 C26           -7.4224   -10.5414   -16.3833 C.ar    
  27 C27           -8.7844    -8.5818   -16.5765 C.ar    
  28 C28           -8.4201    -8.4595   -17.9044 C.ar    
  29 C29           -7.5543    -9.3763   -18.4708 C.ar    
  30 C30           -7.0580   -10.4191   -17.7112 C.ar    
  31 C31            1.1709     2.0855     0.0021 C.ar    
  32 C32            2.3773     1.4107    -0.0131 C.ar    
  33 C33            2.3960     0.0285    -0.0203 C.ar    
  34 C34            1.2084    -0.6789    -0.0136 C.ar    
  35 H35           -0.9592     1.9054     0.0170 H       
  36 H36           -1.1445    -1.7285     0.5176 H       
  37 H37           -2.0552    -0.1993     0.5346 H       
  38 H38           -3.4130    -2.0280    -0.9060 H       
  39 H39           -6.1353    -2.9933    -6.0569 H       
  40 H40           -4.9246    -2.2607    -7.1365 H       
  41 H41           -3.5476    -4.3175    -6.9880 H       
  42 H42           -4.7584    -5.0501    -5.9084 H       
  43 H43           -3.8041    -6.4562    -8.7269 H       
  44 H44           -5.0149    -7.1888    -7.6472 H       
  45 H45           -8.6027    -9.4459   -11.7593 H       
  46 H46           -8.6727   -10.8070   -14.0842 H       
  47 H47           -9.6819    -9.3477   -14.2267 H       
  48 H48           -7.0342   -11.3558   -15.7897 H       
  49 H49           -9.4608    -7.8655   -16.1340 H       
  50 H50           -8.8121    -7.6479   -18.4993 H       
  51 H51           -7.2700    -9.2809   -19.5084 H       
  52 H52           -6.3817   -11.1354   -18.1537 H       
  53 H53            1.1563     3.1654     0.0077 H       
  54 H54            3.3051     1.9634    -0.0197 H       
  55 H55            3.3385    -0.4987    -0.0329 H       
  56 H56            1.2231    -1.7588    -0.0189 H       
@<TRIPOS>BOND
   1    1    2 ar
   2    1   31 ar
   3    1   35 1
   4    2    3 1
   5    2   34 ar
   6    3    4 1
   7    3   36 1
   8    3   37 1
   9    4    5 am
  10    4   20 2
  11    5    6 1
  12    5   38 1
  13    6    7 1
  14    6   21 2
  15    7    8 1
  16    8    9 1
  17    8   22 2
  18    9   10 1
  19    9   39 1
  20    9   40 1
  21   10   11 1
  22   10   41 1
  23   10   42 1
  24   11   12 1
  25   12   13 1
  26   12   43 1
  27   12   44 1
  28   13   14 1
  29   13   23 2
  30   14   15 1
  31   15   16 1
  32   15   24 2
  33   16   17 am
  34   16   45 1
  35   17   18 1
  36   17   25 2
  37   18   19 1
  38   18   46 1
  39   18   47 1
  40   19   26 ar
  41   19   27 ar
  42   21   22 1
  43   23   24 1
  44   26   30 ar
  45   26   48 1
  46   27   28 ar
  47   27   49 1
  48   28   29 ar
  49   28   50 1
  50   29   30 ar
  51   29   51 1
  52   30   52 1
  53   31   32 ar
  54   31   53 1
  55   32   33 ar
  56   32   54 1
  57   33   34 ar
  58   33   55 1
  59   34   56 1

#	End of record

