#	Name: ASD05503021
#	Creating user name:	WinNT
#	Creation time:	15. 06. 2019 21:01

#	Modifying user name:	WinNT
#	Modification time:	15. 06. 2019 21:01

#	Program:	/corina/corina34_cracker 3.40 0067  02.08.2006

@<TRIPOS>MOLECULE
ASD05503021
  39   40    0    0    0
SMALL
NO_CHARGES


@<TRIPOS>ATOM
   1 C1            -0.1506     1.3616     0.4411 C.ar    
   2 C2            -0.0933    -0.0174     0.2844 C.ar    
   3 C3             1.1367    -0.6546     0.2035 C.ar    
   4 C4             2.3059     0.0885     0.2795 C.ar    
   5 C5             2.2418     1.4678     0.4363 C.ar    
   6 C6             1.0157     2.0989     0.5165 C.ar    
   7 N7            -1.2748    -0.7632     0.2086 N.am    
   8 C8            -1.3350    -1.8514    -0.5843 C.2     
   9 C9            -2.5641    -2.7233    -0.5750 C.3     
  10 O10           -0.4000    -2.1289    -1.3053 O.2     
  11 C11           -2.3753    -3.8814    -1.5569 C.3     
  12 C12           -3.6232    -4.7666    -1.5476 C.3     
  13 N13            3.5476    -0.5498     0.1989 N.am    
  14 C14            4.5807     0.0608    -0.4145 C.2     
  15 C15            5.8614    -0.6532    -0.5908 C.ar    
  16 O16            4.4584     1.1995    -0.8226 O.2     
  17 C17            6.9337    -0.0228    -1.2260 C.ar    
  18 C18            8.1267    -0.6939    -1.3880 C.ar    
  19 C19            8.2634    -1.9925    -0.9216 C.ar    
  20 C20            7.2020    -2.6233    -0.2906 C.ar    
  21 C21            6.0066    -1.9593    -0.1178 C.ar    
  22 F22            9.4350    -2.6457    -1.0829 F       
  23 H23           -1.1076     1.8586     0.4996 H       
  24 H24            1.1838    -1.7267     0.0820 H       
  25 H25            3.1515     2.0469     0.4956 H       
  26 H26            0.9685     3.1710     0.6384 H       
  27 H27           -2.0504    -0.4971     0.7267 H       
  28 H28           -2.7210    -3.1195     0.4282 H       
  29 H29           -3.4308    -2.1328    -0.8721 H       
  30 H30           -2.2185    -3.4852    -2.5602 H       
  31 H31           -1.5087    -4.4720    -1.2599 H       
  32 H32           -3.7801    -5.1628    -0.5443 H       
  33 H33           -4.4899    -4.1761    -1.8446 H       
  34 H34           -3.4887    -5.5917    -2.2471 H       
  35 H35            3.6652    -1.4321     0.5844 H       
  36 H36            6.8281     0.9885    -1.5900 H       
  37 H37            8.9563    -0.2075    -1.8794 H       
  38 H38            7.3137    -3.6351     0.0702 H       
  39 H39            5.1806    -2.4515     0.3741 H       
@<TRIPOS>BOND
   1    1    2 ar
   2    1    6 ar
   3    1   23 1
   4    2    3 ar
   5    2    7 1
   6    3    4 ar
   7    3   24 1
   8    4    5 ar
   9    4   13 1
  10    5    6 ar
  11    5   25 1
  12    6   26 1
  13    7    8 am
  14    7   27 1
  15    8    9 1
  16    8   10 2
  17    9   11 1
  18    9   28 1
  19    9   29 1
  20   11   12 1
  21   11   30 1
  22   11   31 1
  23   12   32 1
  24   12   33 1
  25   12   34 1
  26   13   14 am
  27   13   35 1
  28   14   15 1
  29   14   16 2
  30   15   17 ar
  31   15   21 ar
  32   17   18 ar
  33   17   36 1
  34   18   19 ar
  35   18   37 1
  36   19   20 ar
  37   19   22 1
  38   20   21 ar
  39   20   38 1
  40   21   39 1

#	End of record

