#	Name: ASD03740007
#	Creating user name:	WinNT
#	Creation time:	15. 06. 2019 20:46

#	Modifying user name:	WinNT
#	Modification time:	15. 06. 2019 20:46

#	Program:	/corina/corina34_cracker 3.40 0067  02.08.2006

@<TRIPOS>MOLECULE
ASD03740007
  38   40    0    0    0
SMALL
NO_CHARGES


@<TRIPOS>ATOM
   1 C1            -0.0167     1.3784     0.0096 C.ar    
   2 C2             0.0021    -0.0041     0.0020 C.ar    
   3 C3            -1.1841    -0.7122     0.0095 C.ar    
   4 C4            -2.3948    -0.0349     0.0247 C.ar    
   5 C5            -2.4109     1.3523     0.0323 C.ar    
   6 C6            -1.2219     2.0557     0.0305 C.ar    
   7 S7             1.4980     2.2786    -0.0000 S.o2    
   8 O8            -3.5630    -0.7292     0.0317 O.3     
   9 C9            -4.7711     0.0339     0.0474 C.3     
  10 N10            1.9043     2.5376    -1.5844 N.am    
  11 O11            1.2097     3.5550     0.5541 O.2     
  12 O12            2.4865     1.4064     0.5303 O.2     
  13 C13            1.5393     3.6065    -2.3385 C.2     
  14 C14            2.0772     3.4379    -3.5775 C.2     
  15 C15            2.7896     2.2306    -3.5749 C.2     
  16 N16            2.6900     1.6958    -2.3818 N.2     
  17 N17            0.7571     4.6793    -1.9205 N.pl3   
  18 O18            3.4714     1.7063    -4.6281 O.3     
  19 C19            4.0967     0.5280    -4.4273 C.2     
  20 C20            4.8500    -0.0958    -5.5165 C.2     
  21 O21            4.0346    -0.0162    -3.3412 O.2     
  22 C22            5.5236    -1.2833    -5.4369 C.2     
  23 C23            6.1458    -1.6346    -6.6107 C.2     
  24 C24            5.9892    -0.7674    -7.6183 C.2     
  25 S25            5.0276     0.5580    -7.1391 S.3     
  26 H26            0.9448    -0.5308    -0.0102 H       
  27 H27           -1.1689    -1.7920     0.0032 H       
  28 H28           -3.3521     1.8818     0.0442 H       
  29 H29           -1.2339     3.1356     0.0364 H       
  30 H30           -4.8122     0.6674    -0.8387 H       
  31 H31           -5.6271    -0.6410     0.0515 H       
  32 H32           -4.7955     0.6572     0.9412 H       
  33 H33            1.9732     4.1135    -4.4136 H       
  34 H34            0.4186     4.7077    -1.0119 H       
  35 H35            0.5506     5.3984    -2.5378 H       
  36 H36            5.5626    -1.8850    -4.5409 H       
  37 H37            6.7195    -2.5439    -6.7127 H       
  38 H38            6.4117    -0.8922    -8.6044 H       
@<TRIPOS>BOND
   1    1    2 ar
   2    1    7 1
   3    1    6 ar
   4    2    3 ar
   5    2   26 1
   6    3    4 ar
   7    3   27 1
   8    4    5 ar
   9    4    8 1
  10    5    6 ar
  11    5   28 1
  12    6   29 1
  13    7   10 am
  14    7   11 2
  15    7   12 2
  16    8    9 1
  17    9   30 1
  18    9   31 1
  19    9   32 1
  20   10   13 1
  21   10   16 1
  22   13   14 2
  23   13   17 1
  24   14   15 1
  25   14   33 1
  26   15   16 2
  27   15   18 1
  28   17   34 1
  29   17   35 1
  30   18   19 1
  31   19   20 1
  32   19   21 2
  33   20   22 2
  34   20   25 1
  35   22   23 1
  36   22   36 1
  37   23   24 2
  38   23   37 1
  39   24   25 1
  40   24   38 1

#	End of record

