#	Name: ASD01028548
#	Creating user name:	WinNT
#	Creation time:	15. 06. 2019 18:57

#	Modifying user name:	WinNT
#	Modification time:	15. 06. 2019 18:57

#	Program:	/corina/corina34_cracker 3.40 0067  02.08.2006

@<TRIPOS>MOLECULE
ASD01028548
  41   45    0    0    0
SMALL
NO_CHARGES


@<TRIPOS>ATOM
   1 N1            -0.0169     1.3919     0.0097 N.2     
   2 N2             0.0021    -0.0041     0.0020 N.pl3   
   3 C3             1.1088     2.0742     0.0026 C.2     
   4 C4             2.3555     1.4103    -0.0133 C.2     
   5 C5             2.4045     0.0525    -0.0211 C.2     
   6 C6             1.2009    -0.6782    -0.0130 C.2     
   7 N7             0.9140    -1.9693    -0.0171 N.2     
   8 N8            -0.3638    -2.1238    -0.0052 N.2     
   9 C9            -0.9618    -0.9586     0.0061 C.2     
  10 C10           -2.4500    -0.7215     0.0218 C.3     
  11 C11            1.0677     3.5524     0.0109 C.2     
  12 N12           -2.9187    -0.6516     1.4081 N.pl3   
  13 C13           -4.2632    -0.4383     1.6758 C.ar    
  14 C14           -5.1800    -0.2885     0.6492 C.ar    
  15 C15           -6.5200    -0.0759     0.9469 C.ar    
  16 N16           -6.9504    -0.0117     2.1853 N.ar    
  17 C17           -6.1204    -0.1477     3.2241 C.ar    
  18 C18           -4.7410    -0.3728     3.0087 C.ar    
  19 C19           -6.5954    -0.0771     4.5486 C.ar    
  20 C20           -5.6968    -0.2244     5.5660 C.ar    
  21 C21           -4.3501    -0.4379     5.2799 C.ar    
  22 N22           -3.9134    -0.5087     4.0454 N.ar    
  23 C23           -0.0481     4.3434     0.0258 C.2     
  24 C24            0.4679     5.6563     0.0280 C.2     
  25 N25            1.7655     5.5458     0.0150 N.2     
  26 O26            2.1202     4.3900     0.0113 O.3     
  27 C27           -0.3271     6.9365     0.0417 C.3     
  28 H28            3.2712     1.9829    -0.0197 H       
  29 H29            3.3550    -0.4601    -0.0336 H       
  30 H30           -2.6737     0.2172    -0.4851 H       
  31 H31           -2.9539    -1.5406    -0.4913 H       
  32 H32           -2.2891    -0.7546     2.1387 H       
  33 H33           -4.8544    -0.3365    -0.3795 H       
  34 H34           -7.2263     0.0399     0.1381 H       
  35 H35           -7.6426     0.0893     4.7537 H       
  36 H36           -6.0298    -0.1750     6.5922 H       
  37 H37           -3.6499    -0.5524     6.0941 H       
  38 H38           -1.0830     4.0347     0.0336 H       
  39 H39           -0.5095     7.2399     1.0726 H       
  40 H40            0.2327     7.7173    -0.4732 H       
  41 H41           -1.2794     6.7783    -0.4645 H       
@<TRIPOS>BOND
   1    1    2 1
   2    1    3 2
   3    2    6 1
   4    2    9 1
   5    3    4 1
   6    3   11 1
   7    4    5 2
   8    4   28 1
   9    5    6 1
  10    5   29 1
  11    6    7 2
  12    7    8 1
  13    8    9 2
  14    9   10 1
  15   10   12 1
  16   10   30 1
  17   10   31 1
  18   11   23 2
  19   11   26 1
  20   12   13 1
  21   12   32 1
  22   13   14 ar
  23   13   18 ar
  24   14   15 ar
  25   14   33 1
  26   15   16 ar
  27   15   34 1
  28   16   17 ar
  29   17   18 ar
  30   17   19 ar
  31   18   22 ar
  32   19   20 ar
  33   19   35 1
  34   20   21 ar
  35   20   36 1
  36   21   22 ar
  37   21   37 1
  38   23   24 1
  39   23   38 1
  40   24   25 2
  41   24   27 1
  42   25   26 1
  43   27   39 1
  44   27   40 1
  45   27   41 1

#	End of record

