#	Name: ASD00120006
#	Creating user name:	WinNT
#	Creation time:	15. 06. 2019 18:31

#	Modifying user name:	WinNT
#	Modification time:	15. 06. 2019 18:31

#	Program:	/corina/corina34_cracker 3.40 0067  02.08.2006

@<TRIPOS>MOLECULE
ASD00120006
  42   42    0    0    0
SMALL
NO_CHARGES


@<TRIPOS>ATOM
   1 C1             0.4488     1.5679    -0.0219 C.ar    
   2 C2             0.5950     0.1947    -0.0439 C.ar    
   3 C3            -0.5216    -0.6208    -0.0596 C.ar    
   4 C4            -1.7877    -0.0647    -0.0534 C.ar    
   5 C5            -1.9407     1.3077    -0.0314 C.ar    
   6 C6            -0.8213     2.1294    -0.0097 C.ar    
   7 C7             1.6662     2.4559    -0.0047 C.3     
   8 C8            -3.3208     1.9128    -0.0255 C.3     
   9 N9            -0.9729     3.5202     0.0130 N.am    
  10 C10           -1.0538     4.1701     1.1910 C.2     
  11 C11           -1.2170     5.6680     1.2155 C.3     
  12 N12           -1.2794     6.1311     2.6082 N.3     
  13 C13           -1.1999     7.5961     2.6799 C.3     
  14 C14            0.2439     8.0410     2.4380 C.3     
  15 O15           -0.9952     3.5493     2.2313 O.2     
  16 C16           -2.4921     5.6364     3.2736 C.3     
  17 C17           -2.3384     5.7831     4.7887 C.3     
  18 C18           -1.0436     4.2700    -1.2436 C.3     
  19 H19            1.5825    -0.2426    -0.0492 H       
  20 H20           -0.4047    -1.6943    -0.0772 H       
  21 H21           -2.6578    -0.7044    -0.0661 H       
  22 H22            1.9621     2.6868    -1.0281 H       
  23 H23            1.4341     3.3806     0.5238 H       
  24 H24            2.4831     1.9428     0.5027 H       
  25 H25           -3.6566     2.0419     1.0034 H       
  26 H26           -3.2947     2.8821    -0.5235 H       
  27 H27           -4.0095     1.2522    -0.5523 H       
  28 H28           -0.3681     6.1342     0.7153 H       
  29 H29           -2.1376     5.9417     0.7000 H       
  30 H30           -1.8469     8.0328     1.9192 H       
  31 H31           -1.5224     7.9297     3.6663 H       
  32 H32            0.2880     9.1296     2.4052 H       
  33 H33            0.8769     7.6759     3.2468 H       
  34 H34            0.5953     7.6344     1.4897 H       
  35 H35           -3.3525     6.2153     2.9379 H       
  36 H36           -2.6410     4.5860     3.0235 H       
  37 H37           -1.4264     5.2811     5.1117 H       
  38 H38           -2.2822     6.8405     5.0476 H       
  39 H39           -3.1970     5.3324     5.2864 H       
  40 H40           -2.0827     4.3448    -1.5641 H       
  41 H41           -0.6368     5.2700    -1.0934 H       
  42 H42           -0.4639     3.7530    -2.0083 H       
@<TRIPOS>BOND
   1    1    2 ar
   2    1    7 1
   3    1    6 ar
   4    2    3 ar
   5    2   19 1
   6    3    4 ar
   7    3   20 1
   8    4    5 ar
   9    4   21 1
  10    5    6 ar
  11    5    8 1
  12    6    9 1
  13    7   22 1
  14    7   23 1
  15    7   24 1
  16    8   25 1
  17    8   26 1
  18    8   27 1
  19    9   10 am
  20    9   18 1
  21   10   11 1
  22   10   15 2
  23   11   12 1
  24   11   28 1
  25   11   29 1
  26   12   13 1
  27   12   16 1
  28   13   14 1
  29   13   30 1
  30   13   31 1
  31   14   32 1
  32   14   33 1
  33   14   34 1
  34   16   17 1
  35   16   35 1
  36   16   36 1
  37   17   37 1
  38   17   38 1
  39   17   39 1
  40   18   40 1
  41   18   41 1
  42   18   42 1

#	End of record

