#	Name: ASD02198160
#	Creating user name:	WinNT
#	Creation time:	15. 06. 2019 20:18

#	Modifying user name:	WinNT
#	Modification time:	15. 06. 2019 20:18

#	Program:	/corina/corina34_cracker 3.40 0067  02.08.2006

@<TRIPOS>MOLECULE
ASD02198160
  45   46    0    0    0
SMALL
NO_CHARGES


@<TRIPOS>ATOM
   1 C1            -0.0184     1.3440    -0.2886 C.2     
   2 C2             0.0096    -0.0344    -0.2510 C.2     
   3 C3            -1.1726    -0.8408    -0.3028 C.1     
   4 S4             1.5587     1.9868    -0.2089 S.3     
   5 C5             2.2776     0.3866    -0.1234 C.2     
   6 C6             1.2917    -0.5715    -0.1587 C.2     
   7 C7             3.6574     0.1239    -0.0326 C.2     
   8 C8             4.6310     1.2328    -0.1476 C.ar    
   9 O9             4.0506    -1.0172     0.1407 O.2     
  10 N10            1.5475    -1.9326    -0.1072 N.pl3   
  11 N11           -1.1640     2.0984    -0.3835 N.pl3   
  12 N12           -2.1105    -1.4805    -0.3438 N.1     
  13 C13            4.3291     2.3522    -0.9238 C.ar    
  14 C14            5.2406     3.3830    -1.0275 C.ar    
  15 C15            6.4521     3.3086    -0.3643 C.ar    
  16 C16            6.7586     2.2002     0.4076 C.ar    
  17 C17            5.8520     1.1655     0.5244 C.ar    
  18 C18           -1.0777     3.5605    -0.4157 C.3     
  19 C19           -0.8319     4.0181    -1.8303 C.2     
  20 O20           -0.7168     5.3277    -2.1016 O.3     
  21 C21           -2.5776     3.7981     1.5683 C.3     
  22 C22           -2.3899     4.1601     0.0936 C.3     
  23 S23           -4.1334     4.5091     2.1721 S.3     
  24 C24           -4.1775     3.9806     3.9068 C.3     
  25 O25           -0.7384     3.2063    -2.7203 O.2     
  26 C26           -0.4807     5.6957    -3.4862 C.3     
  27 Cl27           8.2821     2.1152     1.2354 Cl      
  28 H28            2.4610    -2.2523    -0.0428 H       
  29 H29            0.8130    -2.5655    -0.1357 H       
  30 H30           -2.0293     1.6625    -0.4291 H       
  31 H31            3.3839     2.4117    -1.4429 H       
  32 H32            5.0076     4.2498    -1.6282 H       
  33 H33            7.1622     4.1179    -0.4490 H       
  34 H34            6.0916     0.3014     1.1264 H       
  35 H35           -0.2564     3.8901     0.2207 H       
  36 H36           -2.6080     2.7138     1.6752 H       
  37 H37           -1.7462     4.1973     2.1491 H       
  38 H38           -2.3595     5.2444    -0.0133 H       
  39 H39           -3.2214     3.7609    -0.4872 H       
  40 H40           -5.0851     4.3572     4.3785 H       
  41 H41           -4.1679     2.8917     3.9552 H       
  42 H42           -3.3060     4.3752     4.4291 H       
  43 H43            0.4496     5.2428    -3.8290 H       
  44 H44           -1.3065     5.3404    -4.1026 H       
  45 H45           -0.4079     6.7803    -3.5665 H       
@<TRIPOS>BOND
   1    1    2 2
   2    1    4 1
   3    1   11 1
   4    2    3 1
   5    2    6 1
   6    3   12 3
   7    4    5 1
   8    5    6 2
   9    5    7 1
  10    6   10 1
  11    7    8 1
  12    7    9 2
  13    8   13 ar
  14    8   17 ar
  15   10   28 1
  16   10   29 1
  17   11   18 1
  18   11   30 1
  19   13   14 ar
  20   13   31 1
  21   14   15 ar
  22   14   32 1
  23   15   16 ar
  24   15   33 1
  25   16   17 ar
  26   16   27 1
  27   17   34 1
  28   18   19 1
  29   18   22 1
  30   18   35 1
  31   19   20 1
  32   19   25 2
  33   20   26 1
  34   21   22 1
  35   21   23 1
  36   21   36 1
  37   21   37 1
  38   22   38 1
  39   22   39 1
  40   23   24 1
  41   24   40 1
  42   24   41 1
  43   24   42 1
  44   26   43 1
  45   26   44 1
  46   26   45 1

#	End of record

