#	Name: ASD01813700
#	Creating user name:	WinNT
#	Creation time:	15. 06. 2019 19:30

#	Modifying user name:	WinNT
#	Modification time:	15. 06. 2019 19:30

#	Program:	/corina/corina34_cracker 3.40 0067  02.08.2006

@<TRIPOS>MOLECULE
ASD01813700
  41   44    0    0    0
SMALL
NO_CHARGES


@<TRIPOS>ATOM
   1 C1            -0.0168     1.3834    -0.0446 C.ar    
   2 C2             0.0020    -0.0038    -0.0517 C.ar    
   3 C3             1.1976    -0.6920    -0.0489 C.ar    
   4 C4             2.4035     0.0084    -0.0389 C.ar    
   5 C5             2.3796     1.4130    -0.0318 C.ar    
   6 C6             1.1627     2.0947    -0.0347 C.ar    
   7 N7             3.6056    -0.6668    -0.0350 N.pl3   
   8 C8             4.7891    -0.0410    -0.0241 C.2     
   9 C9             4.8932     1.3356    -0.0159 C.2     
  10 C10            3.6619     2.1417    -0.0212 C.2     
  11 O11            3.7002     3.3596    -0.0147 O.2     
  12 C12            6.2116     1.9851    -0.0029 C.2     
  13 O13            6.3002     3.3303     0.0050 O.3     
  14 O14            7.2221     1.3094     0.0006 O.2     
  15 C15            3.5871    -2.1316    -0.0427 C.3     
  16 C16            3.4445    -2.6248    -1.4595 C.ar    
  17 N17            4.5320    -2.8477    -2.1707 N.ar    
  18 C18            4.4522    -3.2806    -3.4172 C.ar    
  19 C19            3.1913    -3.5011    -3.9771 C.ar    
  20 C20            2.0662    -3.2516    -3.1872 C.ar    
  21 N21            2.2364    -2.8249    -1.9477 N.ar    
  22 F22            1.2003    -2.0430    -0.0555 F       
  23 C23            3.0509    -3.9861    -5.3723 C.ar    
  24 C24            1.7894    -4.2066    -5.9322 C.ar    
  25 C25            1.7041    -4.6575    -7.2334 C.ar    
  26 N26            2.7921    -4.8803    -7.9455 N.ar    
  27 C27            4.0010    -4.6850    -7.4549 C.ar    
  28 C28            4.1765    -4.2295    -6.1643 C.ar    
  29 H29           -0.9608     1.9081    -0.0515 H       
  30 H30           -0.9293    -0.5507    -0.0591 H       
  31 H31            1.1454     3.1745    -0.0295 H       
  32 H32            5.6925    -0.6328    -0.0212 H       
  33 H33            7.1887     3.7117     0.0134 H       
  34 H34            4.5175    -2.5090     0.3815 H       
  35 H35            2.7459    -2.4875     0.5522 H       
  36 H36            5.3475    -3.4607    -3.9937 H       
  37 H37            1.0732    -3.4087    -3.5818 H       
  38 H38            0.8946    -4.0269    -5.3547 H       
  39 H39            0.7337    -4.8307    -7.6747 H       
  40 H40            4.8648    -4.8801    -8.0731 H       
  41 H41            5.1691    -4.0715    -5.7692 H       
@<TRIPOS>BOND
   1    1    2 ar
   2    1    6 ar
   3    1   29 1
   4    2    3 ar
   5    2   30 1
   6    3    4 ar
   7    3   22 1
   8    4    5 ar
   9    4    7 1
  10    5    6 ar
  11    5   10 1
  12    6   31 1
  13    7    8 1
  14    7   15 1
  15    8    9 2
  16    8   32 1
  17    9   10 1
  18    9   12 1
  19   10   11 2
  20   12   13 1
  21   12   14 2
  22   13   33 1
  23   15   16 1
  24   15   34 1
  25   15   35 1
  26   16   17 ar
  27   16   21 ar
  28   17   18 ar
  29   18   19 ar
  30   18   36 1
  31   19   20 ar
  32   19   23 1
  33   20   21 ar
  34   20   37 1
  35   23   24 ar
  36   23   28 ar
  37   24   25 ar
  38   24   38 1
  39   25   26 ar
  40   25   39 1
  41   26   27 ar
  42   27   28 ar
  43   27   40 1
  44   28   41 1

#	End of record

