#	Name: ASD01908167
#	Creating user name:	WinNT
#	Creation time:	15. 06. 2019 19:54

#	Modifying user name:	WinNT
#	Modification time:	15. 06. 2019 19:54

#	Program:	/corina/corina34_cracker 3.40 0067  02.08.2006

@<TRIPOS>MOLECULE
ASD01908167
  35   36    0    0    0
SMALL
NO_CHARGES


@<TRIPOS>ATOM
   1 N1             0.1552     1.2042     0.1545 N.pl3   
   2 N2             1.4767     1.6364     0.3117 N.2     
   3 C3             2.2805     0.6431     0.0495 C.2     
   4 C4             1.4917    -0.4793    -0.2906 C.2     
   5 C5             0.1697    -0.0867    -0.2129 C.2     
   6 C6             1.9866    -1.8166    -0.6596 C.2     
   7 O7             1.1999    -2.7017    -0.9324 O.2     
   8 O8             3.3118    -2.0586    -0.6946 O.3     
   9 C9            -1.0429     2.0214     0.3621 C.3     
  10 C10           -1.4095     2.0132     1.8238 C.ar    
  11 C11           -0.8046     2.9030     2.6921 C.ar    
  12 C12           -1.1389     2.8974     4.0325 C.ar    
  13 C13           -2.0825     1.9979     4.5071 C.ar    
  14 C14           -2.6880     1.1061     3.6338 C.ar    
  15 C15           -2.3544     1.1195     2.2933 C.ar    
  16 O16           -2.4128     1.9902     5.8253 O.3     
  17 C17           -3.3920     1.0369     6.2431 C.3     
  18 C18           -1.0348    -0.9490    -0.4897 C.3     
  19 C19           -1.3338    -0.9410    -1.9902 C.3     
  20 H20            3.3594     0.6732     0.0856 H       
  21 H21            3.5886    -2.9514    -0.9423 H       
  22 H22           -0.8445     3.0447     0.0431 H       
  23 H23           -1.8674     1.6123    -0.2216 H       
  24 H24           -0.0698     3.6028     2.3222 H       
  25 H25           -0.6659     3.5924     4.7104 H       
  26 H26           -3.4229     0.4049     4.0008 H       
  27 H27           -2.8289     0.4287     1.6122 H       
  28 H28           -4.3248     1.2161     5.7085 H       
  29 H29           -3.0355     0.0303     6.0246 H       
  30 H30           -3.5625     1.1372     7.3150 H       
  31 H31           -0.8332    -1.9698    -0.1648 H       
  32 H32           -1.8945    -0.5577     0.0542 H       
  33 H33           -2.1995    -1.5720    -2.1915 H       
  34 H34           -1.5442     0.0785    -2.3133 H       
  35 H35           -0.4706    -1.3239    -2.5347 H       
@<TRIPOS>BOND
   1    1    2 1
   2    1    5 1
   3    1    9 1
   4    2    3 2
   5    3    4 1
   6    3   20 1
   7    4    5 2
   8    4    6 1
   9    5   18 1
  10    6    7 2
  11    6    8 1
  12    8   21 1
  13    9   10 1
  14    9   22 1
  15    9   23 1
  16   10   11 ar
  17   10   15 ar
  18   11   12 ar
  19   11   24 1
  20   12   13 ar
  21   12   25 1
  22   13   14 ar
  23   13   16 1
  24   14   15 ar
  25   14   26 1
  26   15   27 1
  27   16   17 1
  28   17   28 1
  29   17   29 1
  30   17   30 1
  31   18   19 1
  32   18   31 1
  33   18   32 1
  34   19   33 1
  35   19   34 1
  36   19   35 1

#	End of record

