#	Name: ASD05830002
#	Creating user name:	WinNT
#	Creation time:	15. 06. 2019 21:03

#	Modifying user name:	WinNT
#	Modification time:	15. 06. 2019 21:03

#	Program:	/corina/corina34_cracker 3.40 0067  02.08.2006

@<TRIPOS>MOLECULE
ASD05830002
  40   43    0    0    0
SMALL
NO_CHARGES


@<TRIPOS>ATOM
   1 C1            -0.0184     1.5058     0.0103 C.3     
   2 C2            -0.0028    -0.0041     0.0049 C.2     
   3 C3             2.3841    -0.1013    -0.7906 C.3     
   4 C4             2.1109     1.3745    -1.1125 C.3     
   5 N5             1.3706     1.9901    -0.0031 N.4     
   6 N6            -1.0265    -0.8460     0.3436 N.pl3   
   7 C7             0.7277    -2.1225    -0.2327 C.ar    
   8 C8             1.0832    -0.7270    -0.3539 C.2     
   9 C9            -0.6201    -2.1435     0.2124 C.ar    
  10 C10           -1.2760    -3.3529     0.4318 C.ar    
  11 C11           -0.5539    -4.5099     0.1967 C.ar    
  12 C12            0.7615    -4.4843    -0.2372 C.ar    
  13 C13            1.4330    -3.3081    -0.4620 C.ar    
  14 C14           -0.7412     2.0086    -1.2127 C.ar    
  15 C15           -1.6020     1.1715    -1.8980 C.ar    
  16 C16           -2.2677     1.6281    -3.0202 C.ar    
  17 C17           -2.0729     2.9274    -3.4606 C.ar    
  18 C18           -1.2064     3.7700    -2.7708 C.ar    
  19 C19           -0.5463     3.3076    -1.6436 C.ar    
  20 O20           -2.7266     3.3781    -4.5646 O.3     
  21 O21           -1.0116     5.0459    -3.1993 O.3     
  22 C22            3.4194     2.0969    -1.3056 C.2     
  23 O23            4.1038     1.8664    -2.2879 O.co2   
  24 O24            3.7935     2.9118    -0.4794 O.co2   
  25 H25           -0.5218     1.8633     0.9086 H       
  26 H26            2.7585    -0.6097    -1.6791 H       
  27 H27            3.1164    -0.1743     0.0134 H       
  28 H28            1.5198     1.4438    -2.0257 H       
  29 H29            1.3741     2.9929    -0.1144 H       
  30 H30            1.8165     1.7510     0.8699 H       
  31 H31           -1.9082    -0.5640     0.6336 H       
  32 H32           -2.3011    -3.3860     0.7703 H       
  33 H33           -1.0319    -5.4650     0.3572 H       
  34 H34            1.2753    -5.4195    -0.4036 H       
  35 H35            2.4585    -3.2989    -0.8007 H       
  36 H36           -1.7544     0.1585    -1.5560 H       
  37 H37           -2.9393     0.9721    -3.5540 H       
  38 H38            0.1233     3.9609    -1.1040 H       
  39 H39           -3.5853     3.7809    -4.3762 H       
  40 H40           -1.6247     5.6877    -2.8155 H       
@<TRIPOS>BOND
   1    1    2 1
   2    1    5 1
   3    1   14 1
   4    1   25 1
   5    2    6 1
   6    2    8 2
   7    3    4 1
   8    3    8 1
   9    3   26 1
  10    3   27 1
  11    4    5 1
  12    4   22 1
  13    4   28 1
  14    5   29 1
  15    5   30 1
  16    6    9 1
  17    6   31 1
  18    7    8 1
  19    7    9 ar
  20    7   13 ar
  21    9   10 ar
  22   10   11 ar
  23   10   32 1
  24   11   12 ar
  25   11   33 1
  26   12   13 ar
  27   12   34 1
  28   13   35 1
  29   14   15 ar
  30   14   19 ar
  31   15   16 ar
  32   15   36 1
  33   16   17 ar
  34   16   37 1
  35   17   18 ar
  36   17   20 1
  37   18   19 ar
  38   18   21 1
  39   19   38 1
  40   20   39 1
  41   21   40 1
  42   22   23 ar
  43   22   24 ar

#	End of record

