#	Name: ASD09800074
#	Creating user name:	WinNT
#	Creation time:	15. 06. 2019 21:24

#	Modifying user name:	WinNT
#	Modification time:	15. 06. 2019 21:24

#	Program:	/corina/corina34_cracker 3.40 0067  02.08.2006

@<TRIPOS>MOLECULE
ASD09800074
  71   76    0    0    0
SMALL
NO_CHARGES


@<TRIPOS>ATOM
   1 C1             5.3035     4.8636     2.5545 C.ar    
   2 C2             4.2930     4.9510     3.4931 C.ar    
   3 C3             3.1402     4.2031     3.3399 C.ar    
   4 C4             2.9980     3.3674     2.2482 C.ar    
   5 C5             4.0083     3.2788     1.3089 C.ar    
   6 C6             5.1615     4.0275     1.4612 C.ar    
   7 S7             3.8273     2.2125    -0.0821 S.o2    
   8 N8             3.8260     3.1676    -1.4350 N.am    
   9 O9             5.0117     1.4299    -0.1446 O.2     
  10 O10            2.5266     1.6479     0.0117 O.2     
  11 C11            2.7652     4.0405    -1.6708 C.ar    
  12 C12            2.3186     4.2789    -2.9882 C.ar    
  13 C13            2.1390     4.6745    -0.6188 C.ar    
  14 C14            1.0786     5.5470    -0.8438 C.ar    
  15 C15            0.6312     5.7987    -2.1054 C.ar    
  16 C16            1.2390     5.1694    -3.2037 C.ar    
  17 C17            2.4703     3.9023    -5.3466 C.ar    
  18 C18            2.9249     3.6503    -4.0878 C.ar    
  19 C19            0.7932     5.4072    -4.5204 C.ar    
  20 C20            1.4086     4.7763    -5.5645 C.ar    
  21 C21            0.9328     5.0313    -6.9715 C.3     
  22 O22           -0.2410     6.2574    -4.7490 O.3     
  23 C23            0.0445     7.5667    -4.9522 C.ar    
  24 C24            1.6240     9.2406    -5.1216 C.ar    
  25 N25            1.3013     7.9759    -4.9288 N.ar    
  26 C26           -0.9938     8.4764    -5.1914 C.ar    
  27 C27           -0.6777     9.8206    -5.3982 C.ar    
  28 C28            0.6547    10.1973    -5.3576 C.ar    
  29 C29           -2.4028     8.0198    -5.2248 C.ar    
  30 C30           -3.4383     8.9288    -5.4636 C.ar    
  31 C31           -4.7376     8.4563    -5.4854 C.ar    
  32 N32           -4.9618     7.1674    -5.2813 N.ar    
  33 C33           -3.9613     6.3279    -5.0572 C.ar    
  34 N34           -2.7025     6.7367    -5.0332 N.ar    
  35 N35           -4.2392     4.9881    -4.8485 N.pl3   
  36 C36           -5.6252     4.5144    -4.8770 C.3     
  37 C37           -7.0963     2.5258    -5.2079 C.3     
  38 C38           -5.6497     3.0269    -5.2390 C.3     
  39 C39           -6.2603     4.7095    -3.4984 C.3     
  40 N40           -7.6430     4.2155    -3.5207 N.3     
  41 C41           -7.6887     2.7785    -3.8196 C.3     
  42 Cl42           6.4302     3.9177     0.2814 Cl      
  43 H43            6.2020     5.4512     2.6720 H       
  44 H44            4.4039     5.6033     4.3467 H       
  45 H45            2.3508     4.2716     4.0737 H       
  46 H46            2.0975     2.7831     2.1292 H       
  47 H47            4.5634     3.1195    -2.0633 H       
  48 H48            2.4750     4.4917     0.3912 H       
  49 H49            0.6024     6.0321    -0.0046 H       
  50 H50           -0.1934     6.4787    -2.2606 H       
  51 H51            2.9401     3.4162    -6.1888 H       
  52 H52            3.7493     2.9694    -3.9358 H       
  53 H53            0.1571     4.3102    -7.2291 H       
  54 H54            0.5278     6.0409    -7.0407 H       
  55 H55            1.7694     4.9273    -7.6624 H       
  56 H56            2.6632     9.5334    -5.0940 H       
  57 H57           -1.4530    10.5488    -5.5856 H       
  58 H58            0.9341    11.2288    -5.5135 H       
  59 H59           -3.2281     9.9755    -5.6268 H       
  60 H60           -5.5608     9.1314    -5.6668 H       
  61 H61           -3.5163     4.3628    -4.6834 H       
  62 H62           -6.1878     5.0797    -5.6201 H       
  63 H63           -7.6824     3.0592    -5.9563 H       
  64 H64           -7.1161     1.4574    -5.4230 H       
  65 H65           -5.2377     2.8884    -6.2386 H       
  66 H66           -5.0546     2.4666    -4.5179 H       
  67 H67           -5.6888     4.1557    -2.7536 H       
  68 H68           -6.2574     5.7693    -3.2438 H       
  69 H69           -8.1139     4.4192    -2.6519 H       
  70 H70           -8.7233     2.4358    -3.7984 H       
  71 H71           -7.1105     2.2337    -3.0733 H       
@<TRIPOS>BOND
   1    1    2 ar
   2    1    6 ar
   3    1   43 1
   4    2    3 ar
   5    2   44 1
   6    3    4 ar
   7    3   45 1
   8    4    5 ar
   9    4   46 1
  10    5    6 ar
  11    5    7 1
  12    6   42 1
  13    7    8 am
  14    7    9 2
  15    7   10 2
  16    8   11 1
  17    8   47 1
  18   11   13 ar
  19   11   12 ar
  20   12   16 ar
  21   12   18 ar
  22   13   14 ar
  23   13   48 1
  24   14   15 ar
  25   14   49 1
  26   15   16 ar
  27   15   50 1
  28   16   19 ar
  29   17   18 ar
  30   17   20 ar
  31   17   51 1
  32   18   52 1
  33   19   20 ar
  34   19   22 1
  35   20   21 1
  36   21   53 1
  37   21   54 1
  38   21   55 1
  39   22   23 1
  40   23   26 ar
  41   23   25 ar
  42   24   25 ar
  43   24   28 ar
  44   24   56 1
  45   26   27 ar
  46   26   29 1
  47   27   28 ar
  48   27   57 1
  49   28   58 1
  50   29   30 ar
  51   29   34 ar
  52   30   31 ar
  53   30   59 1
  54   31   32 ar
  55   31   60 1
  56   32   33 ar
  57   33   34 ar
  58   33   35 1
  59   35   36 1
  60   35   61 1
  61   36   39 1
  62   36   38 1
  63   36   62 1
  64   37   38 1
  65   37   41 1
  66   37   63 1
  67   37   64 1
  68   38   65 1
  69   38   66 1
  70   39   40 1
  71   39   67 1
  72   39   68 1
  73   40   41 1
  74   40   69 1
  75   41   70 1
  76   41   71 1

#	End of record

