#	Name: ASD07300883
#	Creating user name:	WinNT
#	Creation time:	15. 06. 2019 21:10

#	Modifying user name:	WinNT
#	Modification time:	15. 06. 2019 21:10

#	Program:	/corina/corina34_cracker 3.40 0067  02.08.2006

@<TRIPOS>MOLECULE
ASD07300883
  52   56    0    0    0
SMALL
NO_CHARGES


@<TRIPOS>ATOM
   1 N1             0.4977     0.8132    -0.6473 N.am    
   2 C2             0.1945    -0.5018    -0.5058 C.2     
   3 N3             1.0970    -1.4378    -0.4672 N.2     
   4 C4             2.4073    -1.1636    -0.5664 C.2     
   5 C5             2.8180     0.1704    -0.7162 C.2     
   6 C6             1.7878     1.2082    -0.7569 C.2     
   7 N7             3.5365    -1.9184    -0.5577 N.pl3   
   8 N8             4.6376    -1.0647    -0.7004 N.2     
   9 C9             4.2231     0.1686    -0.7945 C.2     
  10 O10            2.0801     2.3839    -0.8854 O.2     
  11 C11            3.5931    -3.3760    -0.4218 C.3     
  12 C12            4.0917    -3.9913    -1.7309 C.3     
  13 C13            4.1507    -5.5136    -1.5890 C.3     
  14 C14            5.1084    -5.8832    -0.4544 C.3     
  15 C15            4.6097    -5.2680     0.8547 C.3     
  16 C16            4.5507    -3.7457     0.7127 C.3     
  17 C17           -1.2551    -0.8962    -0.3873 C.3     
  18 C18           -1.4768    -2.4167    -0.3258 C.3     
  19 C19           -2.5537    -2.1375     0.7359 C.3     
  20 C20           -1.7935    -0.8387     1.0520 C.3     
  21 F21            5.1623    -7.2752    -0.3247 F       
  22 F22            6.3859    -5.3920    -0.7438 F       
  23 C23           -0.7262    -1.0044     2.1029 C.2     
  24 N24           -0.5997    -0.2783     3.1769 N.2     
  25 C25            0.4629    -0.7195     3.8730 C.2     
  26 C26            0.9963    -1.7487     3.1942 C.2     
  27 O27            0.2456    -1.9265     2.0893 O.3     
  28 C28            0.9653    -0.1598     5.1789 C.3     
  29 C29            2.2040    -2.5559     3.5954 C.3     
  30 H30           -0.2132     1.4726    -0.6741 H       
  31 H31            4.8510     1.0395    -0.9124 H       
  32 H32            2.5977    -3.7588    -0.1964 H       
  33 H33            3.4095    -3.7279    -2.5392 H       
  34 H34            5.0871    -3.6085    -1.9563 H       
  35 H35            3.1554    -5.8963    -1.3636 H       
  36 H36            4.5060    -5.9519    -2.5216 H       
  37 H37            3.6144    -5.6507     1.0801 H       
  38 H38            5.2919    -5.5313     1.6629 H       
  39 H39            5.5461    -3.3629     0.4873 H       
  40 H40            4.1955    -3.3074     1.6454 H       
  41 H41           -1.8919    -0.3911    -1.1136 H       
  42 H42           -1.8733    -2.8378    -1.2497 H       
  43 H43           -0.6182    -2.9680     0.0576 H       
  44 H44           -3.5465    -1.9716     0.3177 H       
  45 H45           -2.5536    -2.8544     1.5569 H       
  46 H46           -2.4457     0.0141     1.2405 H       
  47 H47            0.5502    -0.7368     6.0052 H       
  48 H48            2.0534    -0.2189     5.2049 H       
  49 H49            0.6557     0.8813     5.2710 H       
  50 H50            1.8837    -3.4375     4.1505 H       
  51 H51            2.7466    -2.8661     2.7024 H       
  52 H52            2.8551    -1.9478     4.2234 H       
@<TRIPOS>BOND
   1    1    2 1
   2    1    6 am
   3    1   30 1
   4    2    3 2
   5    2   17 1
   6    3    4 1
   7    4    5 2
   8    4    7 1
   9    5    6 1
  10    5    9 1
  11    6   10 2
  12    7    8 1
  13    7   11 1
  14    8    9 2
  15    9   31 1
  16   11   12 1
  17   11   16 1
  18   11   32 1
  19   12   13 1
  20   12   33 1
  21   12   34 1
  22   13   14 1
  23   13   35 1
  24   13   36 1
  25   14   15 1
  26   14   21 1
  27   14   22 1
  28   15   16 1
  29   15   37 1
  30   15   38 1
  31   16   39 1
  32   16   40 1
  33   17   18 1
  34   17   20 1
  35   17   41 1
  36   18   19 1
  37   18   42 1
  38   18   43 1
  39   19   20 1
  40   19   44 1
  41   19   45 1
  42   20   23 1
  43   20   46 1
  44   23   24 2
  45   23   27 1
  46   24   25 1
  47   25   26 2
  48   25   28 1
  49   26   27 1
  50   26   29 1
  51   28   47 1
  52   28   48 1
  53   28   49 1
  54   29   50 1
  55   29   51 1
  56   29   52 1

#	End of record

