#	Name: ASD08178198
#	Creating user name:	WinNT
#	Creation time:	15. 06. 2019 21:18

#	Modifying user name:	WinNT
#	Modification time:	15. 06. 2019 21:18

#	Program:	/corina/corina34_cracker 3.40 0067  02.08.2006

@<TRIPOS>MOLECULE
ASD08178198
  69   72    0    0    0
SMALL
NO_CHARGES


@<TRIPOS>ATOM
   1 C1            -0.0191     1.5027     0.0207 C.ar    
   2 C2             0.0010    -0.0042     0.0166 C.3     
   3 C3            -0.8034    -0.5283     1.2078 C.3     
   4 C4            -0.7830    -2.0581     1.2036 C.3     
   5 C5            -1.5874    -2.5822     2.3949 C.3     
   6 C6            -1.5673    -4.0891     2.3907 C.2     
   7 N7            -0.6926    -4.8430     2.9773 N.2     
   8 N8            -0.8493    -6.0898     2.8558 N.2     
   9 C9            -1.8644    -6.5050     2.1598 C.2     
  10 S10           -2.7350    -5.1430     1.5925 S.3     
  11 N11           -2.1931    -7.8348     1.9197 N.am    
  12 C12           -1.4281    -8.8206     2.4289 C.2     
  13 C13           -1.7844   -10.2616     2.1687 C.3     
  14 O14           -0.4530    -8.5481     3.0966 O.2     
  15 C15           -0.7780   -11.1576     2.8435 C.ar    
  16 C16            1.1728     2.2124     0.0064 C.ar    
  17 C17            1.1067     3.5974     0.0109 C.ar    
  18 C18           -0.1542     4.1903     0.0295 C.ar    
  19 N19           -1.2376     3.4283     0.0422 N.ar    
  20 N20           -1.1697     2.1466     0.0324 N.ar    
  21 N21           -0.2749     5.5795     0.0353 N.am    
  22 C22           -1.4926     6.1505    -0.0517 C.2     
  23 C23           -1.6342     7.6458     0.0713 C.3     
  24 O24           -2.4744     5.4610    -0.2290 O.2     
  25 C25           -3.0867     8.0253    -0.0606 C.ar    
  26 C26           -3.8892     8.0891     1.0632 C.ar    
  27 C27           -5.2215     8.4372     0.9422 C.ar    
  28 C28           -5.7512     8.7220    -0.3024 C.ar    
  29 C29           -4.9485     8.6592    -1.4261 C.ar    
  30 C30           -3.6151     8.3153    -1.3046 C.ar    
  31 C31            0.3043   -11.6405     2.1318 C.ar    
  32 C32            1.2294   -12.4628     2.7479 C.ar    
  33 C33            1.0760   -12.8061     4.0782 C.ar    
  34 C34           -0.0066   -12.3255     4.7973 C.ar    
  35 C35           -0.9343   -11.4929     4.1789 C.ar    
  36 O36           -0.1592   -12.6626     6.1059 O.3     
  37 C37            0.8347   -13.5164     6.6761 C.3     
  38 O38           -1.9985   -11.0186     4.8804 O.3     
  39 C39           -1.8240    -9.7747     5.5619 C.3     
  40 H40           -0.4409    -0.3709    -0.9099 H       
  41 H41            1.0307    -0.3540     0.0914 H       
  42 H42           -0.3615    -0.1615     2.1343 H       
  43 H43           -1.8331    -0.1785     1.1331 H       
  44 H44           -1.2249    -2.4249     0.2772 H       
  45 H45            0.2467    -2.4079     1.2784 H       
  46 H46           -1.1455    -2.2155     3.3213 H       
  47 H47           -2.6171    -2.2324     2.3201 H       
  48 H48           -2.9730    -8.0528     1.3857 H       
  49 H49           -2.7782   -10.4676     2.5661 H       
  50 H50           -1.7761   -10.4498     1.0951 H       
  51 H51            2.1241     1.7012    -0.0074 H       
  52 H52            2.0044     4.1978     0.0007 H       
  53 H53            0.5176     6.1349     0.1018 H       
  54 H54           -1.2615     7.9672     1.0438 H       
  55 H55           -1.0588     8.1313    -0.7169 H       
  56 H56           -3.4753     7.8665     2.0356 H       
  57 H57           -5.8487     8.4863     1.8201 H       
  58 H58           -6.7923     8.9933    -0.3970 H       
  59 H59           -5.3624     8.8814    -2.3985 H       
  60 H60           -2.9879     8.2662    -2.1825 H       
  61 H61            0.4273   -11.3752     1.0922 H       
  62 H62            2.0736   -12.8380     2.1885 H       
  63 H63            1.7997   -13.4491     4.5569 H       
  64 H64            1.8098   -13.0338     6.6098 H       
  65 H65            0.5938   -13.7066     7.7220 H       
  66 H66            0.8587   -14.4603     6.1314 H       
  67 H67           -2.7461    -9.5120     6.0804 H       
  68 H68           -1.0140    -9.8673     6.2853 H       
  69 H69           -1.5788    -8.9960     4.8396 H       
@<TRIPOS>BOND
   1    1    2 1
   2    1   16 ar
   3    1   20 ar
   4    2    3 1
   5    2   40 1
   6    2   41 1
   7    3    4 1
   8    3   42 1
   9    3   43 1
  10    4    5 1
  11    4   44 1
  12    4   45 1
  13    5    6 1
  14    5   46 1
  15    5   47 1
  16    6    7 2
  17    6   10 1
  18    7    8 1
  19    8    9 2
  20    9   10 1
  21    9   11 1
  22   11   12 am
  23   11   48 1
  24   12   13 1
  25   12   14 2
  26   13   15 1
  27   13   49 1
  28   13   50 1
  29   15   31 ar
  30   15   35 ar
  31   16   17 ar
  32   16   51 1
  33   17   18 ar
  34   17   52 1
  35   18   19 ar
  36   18   21 1
  37   19   20 ar
  38   21   22 am
  39   21   53 1
  40   22   23 1
  41   22   24 2
  42   23   25 1
  43   23   54 1
  44   23   55 1
  45   25   26 ar
  46   25   30 ar
  47   26   27 ar
  48   26   56 1
  49   27   28 ar
  50   27   57 1
  51   28   29 ar
  52   28   58 1
  53   29   30 ar
  54   29   59 1
  55   30   60 1
  56   31   32 ar
  57   31   61 1
  58   32   33 ar
  59   32   62 1
  60   33   34 ar
  61   33   63 1
  62   34   35 ar
  63   34   36 1
  64   35   38 1
  65   36   37 1
  66   37   64 1
  67   37   65 1
  68   37   66 1
  69   38   39 1
  70   39   67 1
  71   39   68 1
  72   39   69 1

#	End of record

