#	Name: ASD05303011
#	Creating user name:	WinNT
#	Creation time:	15. 06. 2019 20:58

#	Modifying user name:	WinNT
#	Modification time:	15. 06. 2019 20:58

#	Program:	/corina/corina34_cracker 3.40 0067  02.08.2006

@<TRIPOS>MOLECULE
ASD05303011
  39   41    0    0    0
SMALL
NO_CHARGES


@<TRIPOS>ATOM
   1 C1             0.1329    -1.6315     3.7559 C.ar    
   2 C2             0.4231    -2.6720     2.8937 C.ar    
   3 C3             1.5290    -2.5972     2.0651 C.ar    
   4 C4             2.3423    -1.4784     2.1023 C.ar    
   5 C5             2.0508    -0.4262     2.9677 C.ar    
   6 C6             0.9421    -0.5106     3.7952 C.ar    
   7 O7             2.8410     0.6770     3.0019 O.3     
   8 N8             3.4750    -1.3906     1.2722 N.am    
   9 C9             4.0734     0.6405     2.4340 C.ar    
  10 C10            4.4184    -0.3865     1.5581 C.ar    
  11 C11            5.6743    -0.4167     0.9783 C.ar    
  12 C12            6.5920     0.5768     1.2717 C.ar    
  13 C13            6.2538     1.5959     2.1418 C.ar    
  14 C14            4.9994     1.6303     2.7234 C.ar    
  15 C15            3.6505    -2.2389     0.2396 C.2     
  16 O16            4.7681    -2.6197    -0.0512 O.2     
  17 N17            2.5873    -2.6650    -0.4706 N.am    
  18 C18            2.7455    -3.7415    -1.4516 C.3     
  19 C19            2.5083    -5.0909    -0.7707 C.3     
  20 C20            1.2733    -2.0517    -0.2616 C.3     
  21 C21            0.8394    -1.3282    -1.5380 C.3     
  22 H22           -0.7327    -1.6921     4.3989 H       
  23 H23           -0.2133    -3.5442     2.8669 H       
  24 H24            1.7568    -3.4100     1.3914 H       
  25 H25            0.7098     0.2995     4.4706 H       
  26 H26            5.9379    -1.2137     0.2987 H       
  27 H27            7.5731     0.5555     0.8207 H       
  28 H28            6.9730     2.3688     2.3695 H       
  29 H29            4.7409     2.4295     3.4022 H       
  30 H30            2.0226    -3.6086    -2.2566 H       
  31 H31            3.7551    -3.7139    -1.8617 H       
  32 H32            2.6260    -5.8919    -1.5006 H       
  33 H33            3.2311    -5.2238     0.0342 H       
  34 H34            1.4987    -5.1185    -0.3607 H       
  35 H35            0.5458    -2.8258    -0.0175 H       
  36 H36            1.3325    -1.3368     0.5591 H       
  37 H37           -0.0898    -0.7894    -1.3522 H       
  38 H38            1.6147    -0.6230    -1.8373 H       
  39 H39            0.6840    -2.0568    -2.3337 H       
@<TRIPOS>BOND
   1    1    2 ar
   2    1    6 ar
   3    1   22 1
   4    2    3 ar
   5    2   23 1
   6    3    4 ar
   7    3   24 1
   8    4    5 ar
   9    4    8 1
  10    5    6 ar
  11    5    7 1
  12    6   25 1
  13    7    9 1
  14    8   10 1
  15    8   15 am
  16    9   10 ar
  17    9   14 ar
  18   10   11 ar
  19   11   12 ar
  20   11   26 1
  21   12   13 ar
  22   12   27 1
  23   13   14 ar
  24   13   28 1
  25   14   29 1
  26   15   16 2
  27   15   17 am
  28   17   18 1
  29   17   20 1
  30   18   19 1
  31   18   30 1
  32   18   31 1
  33   19   32 1
  34   19   33 1
  35   19   34 1
  36   20   21 1
  37   20   35 1
  38   20   36 1
  39   21   37 1
  40   21   38 1
  41   21   39 1

#	End of record

