#	Name: ASD02030600
#	Creating user name:	WinNT
#	Creation time:	15. 06. 2019 20:15

#	Modifying user name:	WinNT
#	Modification time:	15. 06. 2019 20:15

#	Program:	/corina/corina34_cracker 3.40 0067  02.08.2006

@<TRIPOS>MOLECULE
ASD02030600
  64   67    0    0    0
SMALL
NO_CHARGES


@<TRIPOS>ATOM
   1 C1             0.0041     1.3642    -0.0886 C.ar    
   2 C2             0.0001    -0.0143    -0.0726 C.ar    
   3 C3             1.2039    -0.7045    -0.0713 C.ar    
   4 C4             2.3969    -0.0028    -0.0802 C.ar    
   5 C5             2.3986     1.3861    -0.0899 C.ar    
   6 C6             1.2017     2.0672    -0.1031 C.ar    
   7 C7             1.1317     3.5732    -0.1474 C.3     
   8 C8             3.7342     2.0818    -0.0702 C.3     
   9 C9             3.6058     3.5200    -0.5694 C.3     
  10 N10            2.4595     4.1377     0.1160 N.am    
  11 C11            0.6537     4.0201    -1.5305 C.3     
  12 O12            1.5041     3.4590    -2.5326 O.3     
  13 C13            1.2151     3.7602    -3.8268 C.ar    
  14 C14            2.6238     5.1809     0.9533 C.2     
  15 O15            3.7422     5.5729     1.2237 O.2     
  16 C16            1.4437     5.8486     1.5429 C.ar    
  17 C17            0.6265     4.3728    -6.4615 C.ar    
  18 C18           -0.1547     4.8891    -5.4382 C.ar    
  19 C19            0.1389     4.5832    -4.1236 C.ar    
  20 C20            2.0000     3.2490    -4.8496 C.ar    
  21 C21            1.7064     3.5548    -6.1643 C.ar    
  22 C22            1.5033     6.3601     2.8402 C.ar    
  23 C23            0.2675     5.9751     0.8025 C.ar    
  24 C24           -0.8305     6.5996     1.3578 C.ar    
  25 C25           -0.7677     7.1000     2.6457 C.ar    
  26 C26            0.3978     6.9828     3.3845 C.ar    
  27 Cl27           0.4688     7.6194     4.9980 Cl      
  28 O28            1.2115    -2.0634    -0.0608 O.3     
  29 C29           -0.0519    -2.7182     0.0705 C.3     
  30 O30            0.3372     4.6736    -7.7557 O.3     
  31 C31            1.1836     4.1072    -8.7581 C.3     
  32 C32           -0.9161    -2.4094    -1.1537 C.3     
  33 C33            0.1651    -4.2293     0.1735 C.3     
  34 C34           -0.7573    -2.2172     1.3323 C.3     
  35 H35           -0.9324     1.9021    -0.0944 H       
  36 H36           -0.9351    -0.5543    -0.0608 H       
  37 H37            3.3340    -0.5396    -0.0794 H       
  38 H38            0.4309     3.9261     0.6092 H       
  39 H39            4.1195     2.0894     0.9494 H       
  40 H40            4.4299     1.5405    -0.7114 H       
  41 H41            4.5160     4.0733    -0.3380 H       
  42 H42            3.4357     3.5227    -1.6461 H       
  43 H43           -0.3692     3.6787    -1.6892 H       
  44 H44            0.6875     5.1078    -1.5927 H       
  45 H45           -0.9954     5.5263    -5.6696 H       
  46 H46           -0.4699     4.9846    -3.3269 H       
  47 H47            2.8409     2.6120    -4.6182 H       
  48 H48            2.3147     3.1528    -6.9610 H       
  49 H49            2.4118     6.2687     3.4169 H       
  50 H50            0.2169     5.5852    -0.2034 H       
  51 H51           -1.7409     6.6981     0.7853 H       
  52 H52           -1.6299     7.5883     3.0755 H       
  53 H53            2.2083     4.4440    -8.6011 H       
  54 H54            1.1448     3.0198    -8.6944 H       
  55 H55            0.8433     4.4258    -9.7434 H       
  56 H56           -0.4581    -2.8460    -2.0412 H       
  57 H57           -1.9106    -2.8325    -1.0125 H       
  58 H58           -0.9951    -1.3295    -1.2795 H       
  59 H59            0.7808    -4.4493     1.0456 H       
  60 H60           -0.7985    -4.7287     0.2736 H       
  61 H61            0.6677    -4.5862    -0.7255 H       
  62 H62           -0.8300    -1.1301     1.3005 H       
  63 H63           -1.7577    -2.6468     1.3842 H       
  64 H64           -0.1868    -2.5176     2.2111 H       
@<TRIPOS>BOND
   1    1    2 ar
   2    1    6 ar
   3    1   35 1
   4    2    3 ar
   5    2   36 1
   6    3    4 ar
   7    3   28 1
   8    4    5 ar
   9    4   37 1
  10    5    6 ar
  11    5    8 1
  12    6    7 1
  13    7   10 1
  14    7   11 1
  15    7   38 1
  16    8    9 1
  17    8   39 1
  18    8   40 1
  19    9   10 1
  20    9   41 1
  21    9   42 1
  22   10   14 am
  23   11   12 1
  24   11   43 1
  25   11   44 1
  26   12   13 1
  27   13   20 ar
  28   13   19 ar
  29   14   15 2
  30   14   16 1
  31   16   23 ar
  32   16   22 ar
  33   17   18 ar
  34   17   21 ar
  35   17   30 1
  36   18   19 ar
  37   18   45 1
  38   19   46 1
  39   20   21 ar
  40   20   47 1
  41   21   48 1
  42   22   26 ar
  43   22   49 1
  44   23   24 ar
  45   23   50 1
  46   24   25 ar
  47   24   51 1
  48   25   26 ar
  49   25   52 1
  50   26   27 1
  51   28   29 1
  52   29   32 1
  53   29   33 1
  54   29   34 1
  55   30   31 1
  56   31   53 1
  57   31   54 1
  58   31   55 1
  59   32   56 1
  60   32   57 1
  61   32   58 1
  62   33   59 1
  63   33   60 1
  64   33   61 1
  65   34   62 1
  66   34   63 1
  67   34   64 1

#	End of record

