#	Name: ASD01208502
#	Creating user name:	WinNT
#	Creation time:	15. 06. 2019 19:09

#	Modifying user name:	WinNT
#	Modification time:	15. 06. 2019 19:09

#	Program:	/corina/corina34_cracker 3.40 0067  02.08.2006

@<TRIPOS>MOLECULE
ASD01208502
  23   23    0    0    0
SMALL
NO_CHARGES


@<TRIPOS>ATOM
   1 C1            -0.0167     1.3783     0.0096 C.ar    
   2 C2             0.0021    -0.0041     0.0020 C.ar    
   3 C3             1.2096    -0.6795    -0.0132 C.ar    
   4 C4             2.4003     0.0317    -0.0208 C.ar    
   5 C5             2.3781     1.4152    -0.0131 C.ar    
   6 C6             1.1699     2.0871     0.0021 C.ar    
   7 S7            -1.5549     2.2376     0.0216 S.o2    
   8 O8            -1.2984     3.5272    -0.5171 O.2     
   9 O9            -2.5173     1.3451    -0.5232 O.2     
  10 N10           -1.9754     2.4680     1.6067 N.am    
  11 C11           -1.5427     3.6776     2.3109 C.3     
  12 C12           -2.7801     1.4623     2.3047 C.3     
  13 F13            3.5805    -0.6256    -0.0352 F       
  14 F14            1.2288    -2.0304    -0.0202 F       
  15 H15           -0.9258    -0.5567     0.0083 H       
  16 H16            3.3046     1.9701    -0.0187 H       
  17 H17            1.1532     3.1670     0.0081 H       
  18 H18           -2.2937     4.4579     2.1880 H       
  19 H19           -1.4188     3.4562     3.3709 H       
  20 H20           -0.5934     4.0186     1.8976 H       
  21 H21           -2.2485     0.5107     2.3089 H       
  22 H22           -2.9550     1.7853     3.3309 H       
  23 H23           -3.7353     1.3426     1.7936 H       
@<TRIPOS>BOND
   1    1    2 ar
   2    1    6 ar
   3    1    7 1
   4    2    3 ar
   5    2   15 1
   6    3    4 ar
   7    3   14 1
   8    4    5 ar
   9    4   13 1
  10    5    6 ar
  11    5   16 1
  12    6   17 1
  13    7    8 2
  14    7    9 2
  15    7   10 am
  16   10   11 1
  17   10   12 1
  18   11   18 1
  19   11   19 1
  20   11   20 1
  21   12   21 1
  22   12   22 1
  23   12   23 1

#	End of record

