#	Name: ASD01840180
#	Creating user name:	WinNT
#	Creation time:	15. 06. 2019 19:37

#	Modifying user name:	WinNT
#	Modification time:	15. 06. 2019 19:37

#	Program:	/corina/corina34_cracker 3.40 0067  02.08.2006

@<TRIPOS>MOLECULE
ASD01840180
  43   46    0    0    0
SMALL
NO_CHARGES


@<TRIPOS>ATOM
   1 C1            -1.5787     1.5993    -0.4192 C.3     
   2 C2            -1.3911     0.0763    -0.2972 C.3     
   3 N3            -1.0310    -0.5764    -1.5584 N.am    
   4 C4            -1.3168    -1.8797    -1.7484 C.2     
   5 C5            -0.9574    -2.5311    -3.0071 C.2     
   6 O6            -1.8744    -2.5147    -0.8719 O.2     
   7 C7            -1.2013    -3.8339    -3.2938 C.2     
   8 C8            -0.7489    -4.2441    -4.6102 C.ar    
   9 C9            -0.1474    -3.1945    -5.3175 C.ar    
  10 S10           -0.1612    -1.7288    -4.3468 S.3     
  11 C11           -0.8275    -5.5015    -5.2514 C.ar    
  12 C12           -0.3105    -5.6132    -6.5234 C.ar    
  13 N13            0.2396    -4.5654    -7.1125 N.ar    
  14 N14            0.3189    -3.4184    -6.5482 N.ar    
  15 C15           -0.3717    -6.9345    -7.2455 C.3     
  16 C16           -1.4579    -6.6849    -4.5635 C.3     
  17 N17           -1.8283    -4.6984    -2.4067 N.pl3   
  18 C18           -0.1832     0.3963     0.6018 C.3     
  19 N19           -0.1398     1.7032    -0.0907 N.3     
  20 C20            0.0927     2.7382     0.8112 C.ar    
  21 C21            1.2430     2.7546     1.6017 C.ar    
  22 C22           -0.8146     3.7883     0.9442 C.ar    
  23 C23           -0.5475     4.7946     1.8491 C.ar    
  24 N24            0.5493     4.7719     2.5826 N.ar    
  25 C25            1.4356     3.7985     2.4829 C.ar    
  26 Cl26           2.4144     1.4793     1.4780 Cl      
  27 H27           -1.8240     1.9321    -1.4277 H       
  28 H28           -2.2345     2.0233     0.3412 H       
  29 H29           -2.2066    -0.4259     0.2232 H       
  30 H30           -0.5868    -0.0705    -2.2567 H       
  31 H31           -1.3000    -6.9955    -7.8135 H       
  32 H32            0.4764    -7.0167    -7.9253 H       
  33 H33           -0.3357    -7.7471    -6.5199 H       
  34 H34           -2.5379    -6.6566    -4.7086 H       
  35 H35           -1.0584    -7.6064    -4.9869 H       
  36 H36           -1.2334    -6.6476    -3.4976 H       
  37 H37           -1.8691    -4.4790    -1.4627 H       
  38 H38           -2.2255    -5.5219    -2.7308 H       
  39 H39           -0.4309     0.4685     1.6608 H       
  40 H40            0.6864    -0.2320     0.4090 H       
  41 H41           -1.7139     3.8137     0.3467 H       
  42 H42           -1.2450     5.6119     1.9586 H       
  43 H43            2.3226     3.8198     3.0987 H       
@<TRIPOS>BOND
   1    1    2 1
   2    1   19 1
   3    1   27 1
   4    1   28 1
   5    2    3 1
   6    2   18 1
   7    2   29 1
   8    3    4 am
   9    3   30 1
  10    4    5 1
  11    4    6 2
  12    5    7 2
  13    5   10 1
  14    7    8 1
  15    7   17 1
  16    8    9 ar
  17    8   11 ar
  18    9   10 1
  19    9   14 ar
  20   11   12 ar
  21   11   16 1
  22   12   13 ar
  23   12   15 1
  24   13   14 ar
  25   15   31 1
  26   15   32 1
  27   15   33 1
  28   16   34 1
  29   16   35 1
  30   16   36 1
  31   17   37 1
  32   17   38 1
  33   18   19 1
  34   18   39 1
  35   18   40 1
  36   19   20 1
  37   20   22 ar
  38   20   21 ar
  39   21   25 ar
  40   21   26 1
  41   22   23 ar
  42   22   41 1
  43   23   24 ar
  44   23   42 1
  45   24   25 ar
  46   25   43 1

#	End of record

