#	Name: ASD01916834
#	Creating user name:	WinNT
#	Creation time:	15. 06. 2019 20:08

#	Modifying user name:	WinNT
#	Modification time:	15. 06. 2019 20:08

#	Program:	/corina/corina34_cracker 3.40 0067  02.08.2006

@<TRIPOS>MOLECULE
ASD01916834
  55   58    0    0    0
SMALL
NO_CHARGES


@<TRIPOS>ATOM
   1 C1            -0.0167     1.3810     0.0096 C.ar    
   2 C2             0.0021    -0.0041     0.0020 C.ar    
   3 C3             1.2091    -0.6845    -0.0127 C.ar    
   4 C4             2.3978     0.0155    -0.0199 C.ar    
   5 C5             2.3835     1.4091    -0.0128 C.ar    
   6 C6             1.1677     2.0892     0.0021 C.ar    
   7 C7             3.6597     2.1663    -0.0200 C.2     
   8 N8             4.8868     1.6286    -0.0337 N.2     
   9 N9             3.7736     3.4764    -0.0196 N.2     
  10 N10            5.1485     3.7622    -0.0277 N.pl3   
  11 C11            5.7854     2.5774    -0.0365 C.2     
  12 C12            7.2792     2.3784    -0.0467 C.3     
  13 C13            5.7676     5.0900    -0.0305 C.3     
  14 C14            5.9891     5.5439     1.3894 C.2     
  15 O15            5.6620     4.8287     2.3127 O.2     
  16 N16            6.5506     6.7446     1.6332 N.am    
  17 C17            6.7757     7.2068     3.0112 C.3     
  18 C18            8.2351     7.6557     3.1418 C.3     
  19 N19            8.5351     8.6449     2.0980 N.3     
  20 C20            8.4068     8.0597     0.7567 C.3     
  21 C21            6.9601     7.6248     0.5283 C.3     
  22 C22            9.7977     9.1962     2.2823 C.ar    
  23 C23           10.2668    10.1571     1.3926 C.ar    
  24 N24           10.5411     8.8060     3.3064 N.ar    
  25 C25           11.5253    10.6974     1.5880 C.ar    
  26 C26           12.2748    10.2569     2.6704 C.ar    
  27 C27           11.7445     9.3040     3.5172 C.ar    
  28 F28           -1.1597    -0.6935     0.0095 F       
  29 C29           12.0705    11.7403     0.6466 C.3     
  30 C30            1.2233    -2.1914    -0.0205 C.3     
  31 H31           -0.9597     1.9075     0.0170 H       
  32 H32            3.3381    -0.5156    -0.0307 H       
  33 H33            1.1522     3.1691     0.0074 H       
  34 H34            7.6457     2.3263     0.9785 H       
  35 H35            7.5185     1.4503    -0.5658 H       
  36 H36            7.7536     3.2147    -0.5601 H       
  37 H37            6.7244     5.0437    -0.5506 H       
  38 H38            5.1112     5.7959    -0.5393 H       
  39 H39            6.1139     8.0451     3.2289 H       
  40 H40            6.5797     6.3915     3.7076 H       
  41 H41            8.3914     8.1037     4.1231 H       
  42 H42            8.8924     6.7940     3.0260 H       
  43 H43            8.6877     8.8007     0.0082 H       
  44 H44            9.0617     7.1924     0.6741 H       
  45 H45            6.8841     7.0878    -0.4172 H       
  46 H46            6.3130     8.5017     0.5076 H       
  47 H47            9.6570    10.4766     0.5605 H       
  48 H48           13.2611    10.6585     2.8506 H       
  49 H49           12.3241     8.9585     4.3605 H       
  50 H50           11.7934    12.7323     1.0035 H       
  51 H51           13.1567    11.6596     0.6047 H       
  52 H52           11.6558    11.5834    -0.3491 H       
  53 H53            1.2171    -2.5496    -1.0499 H       
  54 H54            2.1214    -2.5489     0.4831 H       
  55 H55            0.3416    -2.5658     0.4998 H       
@<TRIPOS>BOND
   1    1    2 ar
   2    1    6 ar
   3    1   31 1
   4    2    3 ar
   5    2   28 1
   6    3    4 ar
   7    3   30 1
   8    4    5 ar
   9    4   32 1
  10    5    6 ar
  11    5    7 1
  12    6   33 1
  13    7    8 1
  14    7    9 2
  15    8   11 2
  16    9   10 1
  17   10   11 1
  18   10   13 1
  19   11   12 1
  20   12   34 1
  21   12   35 1
  22   12   36 1
  23   13   14 1
  24   13   37 1
  25   13   38 1
  26   14   15 2
  27   14   16 am
  28   16   17 1
  29   16   21 1
  30   17   18 1
  31   17   39 1
  32   17   40 1
  33   18   19 1
  34   18   41 1
  35   18   42 1
  36   19   20 1
  37   19   22 1
  38   20   21 1
  39   20   43 1
  40   20   44 1
  41   21   45 1
  42   21   46 1
  43   22   23 ar
  44   22   24 ar
  45   23   25 ar
  46   23   47 1
  47   24   27 ar
  48   25   26 ar
  49   25   29 1
  50   26   27 ar
  51   26   48 1
  52   27   49 1
  53   29   50 1
  54   29   51 1
  55   29   52 1
  56   30   53 1
  57   30   54 1
  58   30   55 1

#	End of record

