#	Name: ASD01815913
#	Creating user name:	WinNT
#	Creation time:	15. 06. 2019 19:34

#	Modifying user name:	WinNT
#	Modification time:	15. 06. 2019 19:34

#	Program:	/corina/corina34_cracker 3.40 0067  02.08.2006

@<TRIPOS>MOLECULE
ASD01815913
  51   56    0    0    0
SMALL
NO_CHARGES


@<TRIPOS>ATOM
   1 C1             0.1065     1.4781     0.3815 C.ar    
   2 C2             0.0863     0.0931     0.3727 C.ar    
   3 C3             1.2566    -0.6272     0.2335 C.ar    
   4 C4             2.4729     0.0371     0.1001 C.ar    
   5 C5             2.4904     1.4412     0.1092 C.ar    
   6 C6             1.3032     2.1567     0.2504 C.ar    
   7 N7             3.6499    -0.6795    -0.0394 N.pl3   
   8 C8             4.8508    -0.0941    -0.1713 C.2     
   9 C9             4.9913     1.2716    -0.1769 C.2     
  10 C10            3.7897     2.1249    -0.0336 C.2     
  11 C11            6.1080     2.2038    -0.2962 C.2     
  12 N12            5.5737     3.4421    -0.2259 N.am    
  13 N13            4.1876     3.3643    -0.0691 N.2     
  14 C14            6.3046     4.6337    -0.2988 C.ar    
  15 O15            7.2874     1.9211    -0.4317 O.2     
  16 C16            3.5814    -2.1429    -0.0427 C.3     
  17 C17            3.4348    -2.6357    -1.4593 C.ar    
  18 C18            4.5542    -2.7846    -2.2574 C.ar    
  19 C19            4.4230    -3.2356    -3.5562 C.ar    
  20 C20            3.1656    -3.5401    -4.0602 C.ar    
  21 C21            2.0436    -3.3900    -3.2563 C.ar    
  22 C22            2.1818    -2.9435    -1.9566 C.ar    
  23 N23            3.0292    -3.9976    -5.3782 N.pl3   
  24 C24            1.8693    -4.3278    -5.9900 C.2     
  25 F25            1.3218     3.5075     0.2586 F       
  26 F26            1.2210    -1.9777     0.2273 F       
  27 C27            2.1659    -4.7196    -7.2508 C.2     
  28 C28            3.5521    -4.6262    -7.4161 C.2     
  29 N29            4.0696    -4.1880    -6.2967 N.2     
  30 C30            6.6223     5.1807    -1.5350 C.ar    
  31 C31            7.3432     6.3570    -1.6035 C.ar    
  32 C32            7.7491     6.9898    -0.4431 C.ar    
  33 C33            7.4350     6.4478     0.7900 C.ar    
  34 C34            6.7090     5.2751     0.8659 C.ar    
  35 I35            6.2330     4.4552     2.7341 I       
  36 H36           -0.8163     2.0294     0.4866 H       
  37 H37           -0.8537    -0.4287     0.4762 H       
  38 H38            5.7293    -0.7136    -0.2753 H       
  39 H39            4.4946    -2.5504     0.3911 H       
  40 H40            2.7232    -2.4678     0.5456 H       
  41 H41            5.5320    -2.5476    -1.8648 H       
  42 H42            5.2975    -3.3511    -4.1793 H       
  43 H43            1.0642    -3.6257    -3.6457 H       
  44 H44            1.3094    -2.8266    -1.3308 H       
  45 H45            0.8834    -4.2867    -5.5510 H       
  46 H46            1.4576    -5.0466    -7.9977 H       
  47 H47            4.1003    -4.8695    -8.3143 H       
  48 H48            6.3063     4.6868    -2.4420 H       
  49 H49            7.5905     6.7828    -2.5648 H       
  50 H50            8.3130     7.9092    -0.4996 H       
  51 H51            7.7541     6.9442     1.6946 H       
@<TRIPOS>BOND
   1    1    2 ar
   2    1    6 ar
   3    1   36 1
   4    2    3 ar
   5    2   37 1
   6    3    4 ar
   7    3   26 1
   8    4    5 ar
   9    4    7 1
  10    5    6 ar
  11    5   10 1
  12    6   25 1
  13    7    8 1
  14    7   16 1
  15    8    9 2
  16    8   38 1
  17    9   10 1
  18    9   11 1
  19   10   13 2
  20   11   12 am
  21   11   15 2
  22   12   13 1
  23   12   14 1
  24   14   30 ar
  25   14   34 ar
  26   16   17 1
  27   16   39 1
  28   16   40 1
  29   17   18 ar
  30   17   22 ar
  31   18   19 ar
  32   18   41 1
  33   19   20 ar
  34   19   42 1
  35   20   21 ar
  36   20   23 1
  37   21   22 ar
  38   21   43 1
  39   22   44 1
  40   23   24 1
  41   23   29 1
  42   24   27 2
  43   24   45 1
  44   27   28 1
  45   27   46 1
  46   28   29 2
  47   28   47 1
  48   30   31 ar
  49   30   48 1
  50   31   32 ar
  51   31   49 1
  52   32   33 ar
  53   32   50 1
  54   33   34 ar
  55   33   51 1
  56   34   35 1

#	End of record

