#	Name: ASD03091433
#	Creating user name:	WinNT
#	Creation time:	15. 06. 2019 20:30

#	Modifying user name:	WinNT
#	Modification time:	15. 06. 2019 20:30

#	Program:	/corina/corina34_cracker 3.40 0067  02.08.2006

@<TRIPOS>MOLECULE
ASD03091433
  31   33    0    0    0
SMALL
NO_CHARGES


@<TRIPOS>ATOM
   1 C1             0.0239     1.6614    -0.0351 C.3     
   2 C2            -0.0008     0.1325    -0.0901 C.3     
   3 N3             0.6651    -0.4123     1.1000 N.3     
   4 C4            -0.0335    -0.0125     2.3282 C.3     
   5 C5            -0.0103     1.5120     2.4572 C.3     
   6 C6             1.4431     1.9932     2.5223 C.3     
   7 N7             2.1009     1.6824     1.2458 N.am    
   8 C8             1.4780     2.1440    -0.0022 C.3     
   9 C9            -0.6908     2.1345     1.2343 C.3     
  10 C10            3.2546     0.9861     1.2201 C.2     
  11 O11            3.8186     0.7055     2.2600 O.2     
  12 O12            3.2695     0.6831    -1.2867 O.3     
  13 N13            3.9907     0.2459    -2.1528 N.2     
  14 C14            5.1071    -0.2163    -1.6697 C.2     
  15 C15            5.0510    -0.0255    -0.2711 C.2     
  16 C16            3.8330     0.5645    -0.0697 C.2     
  17 H17           -0.4756     2.0666    -0.9151 H       
  18 H18           -1.0342    -0.2132    -0.1183 H       
  19 H19            0.5201    -0.2072    -0.9852 H       
  20 H20            0.7466    -1.4163     1.0409 H       
  21 H21           -1.0666    -0.3577     2.2871 H       
  22 H22            0.4638    -0.4574     3.1900 H       
  23 H23           -0.5347     1.8097     3.3652 H       
  24 H24            1.4645     3.0697     2.6919 H       
  25 H25            1.9611     1.4827     3.3342 H       
  26 H26            2.0189     1.7329    -0.8545 H       
  27 H27            1.5026     3.2330    -0.0419 H       
  28 H28           -0.6348     3.2211     1.3002 H       
  29 H29           -1.7351     1.8242     1.2013 H       
  30 H30            5.9179    -0.6596    -2.2287 H       
  31 H31            5.7956    -0.2850     0.4669 H       
@<TRIPOS>BOND
   1    1    2 1
   2    1    8 1
   3    1    9 1
   4    1   17 1
   5    2    3 1
   6    2   18 1
   7    2   19 1
   8    3    4 1
   9    3   20 1
  10    4    5 1
  11    4   21 1
  12    4   22 1
  13    5    6 1
  14    5    9 1
  15    5   23 1
  16    6    7 1
  17    6   24 1
  18    6   25 1
  19    7    8 1
  20    7   10 am
  21    8   26 1
  22    8   27 1
  23    9   28 1
  24    9   29 1
  25   10   11 2
  26   10   16 1
  27   12   13 1
  28   12   16 1
  29   13   14 2
  30   14   15 1
  31   14   30 1
  32   15   16 2
  33   15   31 1

#	End of record

