#	Name: ASD03910083
#	Creating user name:	WinNT
#	Creation time:	15. 06. 2019 20:47

#	Modifying user name:	WinNT
#	Modification time:	15. 06. 2019 20:47

#	Program:	/corina/corina34_cracker 3.40 0067  02.08.2006

@<TRIPOS>MOLECULE
ASD03910083
  24   24    0    0    0
SMALL
NO_CHARGES


@<TRIPOS>ATOM
   1 C1             0.0332     1.4368     0.2544 C.ar    
   2 C2            -0.0330     0.0642    -0.0466 C.ar    
   3 C3             1.1341    -0.6482    -0.3079 C.ar    
   4 C4             2.3667    -0.0022    -0.2717 C.ar    
   5 C5             2.4328     1.3705     0.0284 C.ar    
   6 C6             1.2658     2.0826     0.2910 C.ar    
   7 C7            -1.2083     2.1956     0.5261 C.2     
   8 O8            -2.1299     2.1549    -0.2636 O.2     
   9 O9            -1.3158     2.9312     1.6492 O.3     
  10 C10           -1.3437    -0.6227    -0.0851 C.2     
  11 O11           -2.3483    -0.0334     0.2584 O.2     
  12 O12           -1.4219    -1.9013    -0.5010 O.3     
  13 C13            3.6078    -0.7599    -0.5485 C.2     
  14 O14            4.3529    -0.4007    -1.4374 O.2     
  15 O15            3.9105    -1.8478     0.1856 O.3     
  16 C16            3.7435     2.0572     0.0678 C.2     
  17 O17            4.7684     1.4161    -0.0466 O.2     
  18 O18            3.7994     3.3930     0.2306 O.3     
  19 H19            1.0833    -1.7021    -0.5382 H       
  20 H20            1.3167     3.1365     0.5218 H       
  21 H21           -2.1456     3.4093     1.7831 H       
  22 H22           -2.2995    -2.3075    -0.5088 H       
  23 H23            4.7315    -2.3099    -0.0323 H       
  24 H24            4.6779     3.7966     0.2500 H       
@<TRIPOS>BOND
   1    1    2 ar
   2    1    6 ar
   3    1    7 1
   4    2    3 ar
   5    2   10 1
   6    3    4 ar
   7    3   19 1
   8    4    5 ar
   9    4   13 1
  10    5    6 ar
  11    5   16 1
  12    6   20 1
  13    7    8 2
  14    7    9 1
  15    9   21 1
  16   10   11 2
  17   10   12 1
  18   12   22 1
  19   13   14 2
  20   13   15 1
  21   15   23 1
  22   16   17 2
  23   16   18 1
  24   18   24 1

#	End of record

