#	Name: ASD08390041
#	Creating user name:	WinNT
#	Creation time:	15. 06. 2019 21:19

#	Modifying user name:	WinNT
#	Modification time:	15. 06. 2019 21:19

#	Program:	/corina/corina34_cracker 3.40 0067  02.08.2006

@<TRIPOS>MOLECULE
ASD08390041
  55   58    0    0    0
SMALL
NO_CHARGES


@<TRIPOS>ATOM
   1 C1            -0.2181     1.5182    -0.1605 C.3     
   2 C2            -0.0118     0.0631     0.3052 C.3     
   3 N3             1.1496     1.9749    -0.4586 N.pl3   
   4 C4             2.0141     0.9417    -0.2041 C.2     
   5 N5             1.4413    -0.1367     0.2180 N.2     
   6 C6             3.4783     1.0524    -0.3959 C.ar    
   7 C7             4.3509     0.5143     0.5495 C.ar    
   8 C8             5.7143     0.6206     0.3652 C.ar    
   9 C9             6.2160     1.2598    -0.7544 C.ar    
  10 C10            5.3554     1.7960    -1.6955 C.ar    
  11 C11            3.9901     1.6902    -1.5256 C.ar    
  12 C12           -1.0755     1.5635    -1.3990 C.ar    
  13 C13            1.5228     3.3056    -0.9448 C.3     
  14 C14            1.6572     4.2479     0.2235 C.ar    
  15 C15            2.8974     4.4718     0.7917 C.ar    
  16 C16            3.0207     5.3361     1.8634 C.ar    
  17 C17            1.9040     5.9768     2.3667 C.ar    
  18 C18            0.6640     5.7536     1.7980 C.ar    
  19 C19            0.5413     4.8926     0.7235 C.ar    
  20 C20           -2.4255     1.8687    -1.3168 C.ar    
  21 C21           -3.1803     1.9014    -2.4741 C.ar    
  22 N22           -2.6306     1.6463    -3.6453 N.ar    
  23 C23           -1.3503     1.3524    -3.7611 C.ar    
  24 C24           -0.5320     1.3067    -2.6483 C.ar    
  25 C25           -0.4914    -0.1113     1.7475 C.3     
  26 C26           -0.7348    -0.8916    -0.6095 C.2     
  27 O27           -1.8719    -1.2188    -0.3645 O.2     
  28 O28           -0.1157    -1.3786    -1.6963 O.3     
  29 C29           -0.0089    -2.7389    -3.7134 C.3     
  30 C30           -0.8730    -2.2933    -2.5320 C.3     
  31 H31           -0.6588     2.1180     0.6358 H       
  32 H32            3.9604     0.0156     1.4243 H       
  33 H33            6.3911     0.2042     1.0966 H       
  34 H34            7.2838     1.3409    -0.8942 H       
  35 H35            5.7530     2.2943    -2.5674 H       
  36 H36            3.3192     2.1089    -2.2611 H       
  37 H37            2.4736     3.2454    -1.4744 H       
  38 H38            0.7524     3.6742    -1.6221 H       
  39 H39            3.7699     3.9713     0.3985 H       
  40 H40            3.9895     5.5106     2.3078 H       
  41 H41            2.0002     6.6516     3.2045 H       
  42 H42           -0.2086     6.2539     2.1914 H       
  43 H43           -0.4274     4.7181     0.2791 H       
  44 H44           -2.8816     2.0780    -0.3604 H       
  45 H45           -4.2325     2.1383    -2.4185 H       
  46 H46           -0.9356     1.1489    -4.7374 H       
  47 H47            0.5159     1.0657    -2.7497 H       
  48 H48           -1.5518     0.1333     1.8099 H       
  49 H49           -0.3379    -1.1445     2.0590 H       
  50 H50            0.0737     0.5531     2.4012 H       
  51 H51           -0.5774    -3.4255    -4.3407 H       
  52 H52            0.2823    -1.8674    -4.2997 H       
  53 H53            0.8840    -3.2413    -3.3413 H       
  54 H54           -1.1641    -3.1648    -1.9456 H       
  55 H55           -1.7659    -1.7909    -2.9041 H       
@<TRIPOS>BOND
   1    1    2 1
   2    1    3 1
   3    1   12 1
   4    1   31 1
   5    2   25 1
   6    2   26 1
   7    2    5 1
   8    3    4 1
   9    3   13 1
  10    4    5 2
  11    4    6 1
  12    6    7 ar
  13    6   11 ar
  14    7    8 ar
  15    7   32 1
  16    8    9 ar
  17    8   33 1
  18    9   10 ar
  19    9   34 1
  20   10   11 ar
  21   10   35 1
  22   11   36 1
  23   12   20 ar
  24   12   24 ar
  25   13   14 1
  26   13   37 1
  27   13   38 1
  28   14   15 ar
  29   14   19 ar
  30   15   16 ar
  31   15   39 1
  32   16   17 ar
  33   16   40 1
  34   17   18 ar
  35   17   41 1
  36   18   19 ar
  37   18   42 1
  38   19   43 1
  39   20   21 ar
  40   20   44 1
  41   21   22 ar
  42   21   45 1
  43   22   23 ar
  44   23   24 ar
  45   23   46 1
  46   24   47 1
  47   25   48 1
  48   25   49 1
  49   25   50 1
  50   26   27 2
  51   26   28 1
  52   28   30 1
  53   29   30 1
  54   29   51 1
  55   29   52 1
  56   29   53 1
  57   30   54 1
  58   30   55 1

#	End of record

