#	Name: ASD01883505
#	Creating user name:	WinNT
#	Creation time:	15. 06. 2019 19:46

#	Modifying user name:	WinNT
#	Modification time:	15. 06. 2019 19:46

#	Program:	/corina/corina34_cracker 3.40 0067  02.08.2006

@<TRIPOS>MOLECULE
ASD01883505
  42   44    0    0    0
SMALL
NO_CHARGES


@<TRIPOS>ATOM
   1 N1            -0.0162     1.3417     0.0094 N.am    
   2 C2             0.0021    -0.0041     0.0020 C.2     
   3 C3            -1.2162    -0.7274     0.0102 C.2     
   4 C4            -2.4259    -0.0113     0.0261 C.2     
   5 C5            -2.3786     1.3965     0.0332 C.2     
   6 C6            -1.1850     2.0323     0.0299 C.2     
   7 O7             1.0657    -0.6000    -0.0121 O.2     
   8 C8            -1.2152    -2.1594     0.0021 C.1     
   9 N9            -1.2145    -3.2953    -0.0044 N.1     
  10 C10            1.2512     2.0764     0.0013 C.3     
  11 C11            1.6787     2.3400    -1.4440 C.3     
  12 C12            3.0023     3.1073    -1.4525 C.3     
  13 C13            4.1049     2.2288    -0.8581 C.3     
  14 C14            3.3667     3.4796    -2.8911 C.3     
  15 C15           -3.7221    -0.7218     0.0347 C.ar    
  16 C16           -4.5657    -0.6154     1.1358 C.ar    
  17 C17           -5.7848    -1.2898     1.1309 C.ar    
  18 C18           -6.1534    -2.0702     0.0179 C.ar    
  19 C19           -5.2928    -2.1630    -1.0741 C.ar    
  20 C20           -4.1028    -1.4974    -1.0691 C.ar    
  21 C21           -6.8895    -1.4016     2.0876 C.2     
  22 C22           -7.8119    -2.1998     1.5281 C.2     
  23 N23           -7.3887    -2.6080     0.2924 N.pl3   
  24 H24           -3.2950     1.9678     0.0450 H       
  25 H25           -1.1611     3.1120     0.0354 H       
  26 H26            1.1242     3.0258     0.5214 H       
  27 H27            2.0168     1.4860     0.5046 H       
  28 H28            1.8057     1.3906    -1.9642 H       
  29 H29            0.9131     2.9304    -1.9474 H       
  30 H30            2.9001     4.0146    -0.8572 H       
  31 H31            4.2071     1.3215    -1.4534 H       
  32 H32            5.0479     2.7755    -0.8642 H       
  33 H33            3.8453     1.9636     0.1668 H       
  34 H34            2.5812     4.1054    -3.3146 H       
  35 H35            4.3097     4.0263    -2.8971 H       
  36 H36            3.4689     2.5723    -3.4864 H       
  37 H37           -4.2780    -0.0159     1.9868 H       
  38 H38           -5.5714    -2.7607    -1.9294 H       
  39 H39           -3.4431    -1.5756    -1.9205 H       
  40 H40           -6.9495    -0.9315     3.0581 H       
  41 H41           -8.7497    -2.4786     1.9854 H       
  42 H42           -7.8867    -3.1907    -0.3021 H       
@<TRIPOS>BOND
   1    1    2 am
   2    1   10 1
   3    1    6 1
   4    2    3 1
   5    2    7 2
   6    3    4 2
   7    3    8 1
   8    4    5 1
   9    4   15 1
  10    5    6 2
  11    5   24 1
  12    6   25 1
  13    8    9 3
  14   10   11 1
  15   10   26 1
  16   10   27 1
  17   11   12 1
  18   11   28 1
  19   11   29 1
  20   12   13 1
  21   12   14 1
  22   12   30 1
  23   13   31 1
  24   13   32 1
  25   13   33 1
  26   14   34 1
  27   14   35 1
  28   14   36 1
  29   15   16 ar
  30   15   20 ar
  31   16   17 ar
  32   16   37 1
  33   17   18 ar
  34   17   21 1
  35   18   19 ar
  36   18   23 1
  37   19   20 ar
  38   19   38 1
  39   20   39 1
  40   21   22 2
  41   21   40 1
  42   22   23 1
  43   22   41 1
  44   23   42 1

#	End of record

