#	Name: ASD09740007
#	Creating user name:	WinNT
#	Creation time:	15. 06. 2019 21:22

#	Modifying user name:	WinNT
#	Modification time:	15. 06. 2019 21:22

#	Program:	/corina/corina34_cracker 3.40 0067  02.08.2006

@<TRIPOS>MOLECULE
ASD09740007
  38   40    0    0    0
SMALL
NO_CHARGES


@<TRIPOS>ATOM
   1 N1            -0.0144     1.2085     0.0087 N.2     
   2 O2             0.0021    -0.0041     0.0020 O.3     
   3 C3             1.2055     1.6807    -0.0004 C.2     
   4 N4             2.0463     0.6260    -0.0141 N.2     
   5 C5             1.2706    -0.4439    -0.0125 C.2     
   6 C6             1.7132    -1.8505    -0.0238 C.ar    
   7 C7             3.0771    -2.1564    -0.0380 C.ar    
   8 C8             0.7679    -2.8851    -0.0146 C.ar    
   9 C9             1.1890    -4.2038    -0.0254 C.ar    
  10 C10            2.5429    -4.5010    -0.0448 C.ar    
  11 C11            3.4867    -3.4747    -0.0486 C.ar    
  12 C12            1.5933     3.1143     0.0031 C.ar    
  13 C13            0.6236     4.1198     0.0178 C.ar    
  14 C14            1.0275     5.4398     0.0211 C.ar    
  15 N15            2.3079     5.7559     0.0106 N.ar    
  16 C16            3.2543     4.8375    -0.0034 C.ar    
  17 C17            2.9377     3.4938    -0.0022 C.ar    
  18 O18            2.9515    -5.7966    -0.0548 O.3     
  19 C19            1.9325    -6.7984    -0.0445 C.3     
  20 O20           -0.5585    -2.5946     0.0053 O.3     
  21 C21           -1.4646    -3.6996     0.0137 C.3     
  22 O22            4.8142    -3.7732    -0.0677 O.3     
  23 C23            5.7264    -2.6732    -0.0706 C.3     
  24 H24            3.8094    -1.3626    -0.0410 H       
  25 H25            0.4617    -5.0022    -0.0183 H       
  26 H26           -0.4266     3.8681     0.0261 H       
  27 H27            0.2852     6.2242     0.0321 H       
  28 H28            4.2909     5.1406    -0.0120 H       
  29 H29            3.7178     2.7470    -0.0138 H       
  30 H30            2.3937    -7.7859    -0.0542 H       
  31 H31            1.3253    -6.6897     0.8542 H       
  32 H32            1.3011    -6.6835    -0.9256 H       
  33 H33           -1.2852    -4.3099     0.8988 H       
  34 H34           -2.4895    -3.3289     0.0296 H       
  35 H35           -1.3103    -4.3028    -0.8810 H       
  36 H36            6.7493    -3.0496    -0.0864 H       
  37 H37            5.5517    -2.0586    -0.9537 H       
  38 H38            5.5741    -2.0725     0.8261 H       
@<TRIPOS>BOND
   1    1    2 1
   2    1    3 2
   3    2    5 1
   4    3    4 1
   5    3   12 1
   6    4    5 2
   7    5    6 1
   8    6    7 ar
   9    6    8 ar
  10    7   11 ar
  11    7   24 1
  12    8    9 ar
  13    8   20 1
  14    9   10 ar
  15    9   25 1
  16   10   11 ar
  17   10   18 1
  18   11   22 1
  19   12   13 ar
  20   12   17 ar
  21   13   14 ar
  22   13   26 1
  23   14   15 ar
  24   14   27 1
  25   15   16 ar
  26   16   17 ar
  27   16   28 1
  28   17   29 1
  29   18   19 1
  30   19   30 1
  31   19   31 1
  32   19   32 1
  33   20   21 1
  34   21   33 1
  35   21   34 1
  36   21   35 1
  37   22   23 1
  38   23   36 1
  39   23   37 1
  40   23   38 1

#	End of record

