#	Name: ASD01120125
#	Creating user name:	WinNT
#	Creation time:	15. 06. 2019 18:59

#	Modifying user name:	WinNT
#	Modification time:	15. 06. 2019 18:59

#	Program:	/corina/corina34_cracker 3.40 0067  02.08.2006

@<TRIPOS>MOLECULE
ASD01120125
  32   34    0    0    0
SMALL
NO_CHARGES


@<TRIPOS>ATOM
   1 C1            -0.0175     1.2675    -0.6938 C.ar    
   2 C2             1.0898     1.6109    -1.4477 C.ar    
   3 C3             2.2977     0.9773    -1.2317 C.ar    
   4 C4             2.3997    -0.0059    -0.2555 C.ar    
   5 C5             1.2854    -0.3481     0.5003 C.ar    
   6 C6             0.0805     0.2892     0.2788 C.ar    
   7 N7             3.6204    -0.6495    -0.0345 N.pl3   
   8 C8             4.8073     0.0580    -0.1467 C.2     
   9 N9             5.9958    -0.4571    -0.0786 N.2     
  10 C10            7.0231     0.3804    -0.2097 C.2     
  11 C11            6.6926     1.6697    -0.3982 C.2     
  12 S12            4.9352     1.7941    -0.4113 S.3     
  13 C13            8.4326    -0.0772    -0.1511 C.ar    
  14 C14            8.7225    -1.4263     0.0465 C.ar    
  15 C15           10.0359    -1.8463     0.1002 C.ar    
  16 C16           11.0638    -0.9315    -0.0413 C.ar    
  17 C17           10.7821     0.4086    -0.2372 C.ar    
  18 C18            9.4724     0.8392    -0.2993 C.ar    
  19 N19           12.4711    -1.3883     0.0176 N.pl3   
  20 O20           12.7218    -2.5676     0.1904 O.2     
  21 O21           13.3780    -0.5847    -0.1066 O.2     
  22 H22           -0.9599     1.7675    -0.8620 H       
  23 H23            1.0098     2.3753    -2.2064 H       
  24 H24            3.1619     1.2455    -1.8212 H       
  25 H25            1.3612    -1.1122     1.2598 H       
  26 H26           -0.7861     0.0237     0.8660 H       
  27 H27            3.6372    -1.5912     0.1973 H       
  28 H28            7.3857     2.4884    -0.5242 H       
  29 H29            7.9208    -2.1413     0.1578 H       
  30 H30           10.2618    -2.8913     0.2532 H       
  31 H31           11.5886     1.1186    -0.3464 H       
  32 H32            9.2536     1.8856    -0.4526 H       
@<TRIPOS>BOND
   1    1    2 ar
   2    1    6 ar
   3    1   22 1
   4    2    3 ar
   5    2   23 1
   6    3    4 ar
   7    3   24 1
   8    4    5 ar
   9    4    7 1
  10    5    6 ar
  11    5   25 1
  12    6   26 1
  13    7    8 1
  14    7   27 1
  15    8    9 2
  16    8   12 1
  17    9   10 1
  18   10   11 2
  19   10   13 1
  20   11   12 1
  21   11   28 1
  22   13   14 ar
  23   13   18 ar
  24   14   15 ar
  25   14   29 1
  26   15   16 ar
  27   15   30 1
  28   16   17 ar
  29   16   19 1
  30   17   18 ar
  31   17   31 1
  32   18   32 1
  33   19   20 2
  34   19   21 2

#	End of record

