#	Name: ASD01913725
#	Creating user name:	WinNT
#	Creation time:	15. 06. 2019 20:02

#	Modifying user name:	WinNT
#	Modification time:	15. 06. 2019 20:02

#	Program:	/corina/corina34_cracker 3.40 0067  02.08.2006

@<TRIPOS>MOLECULE
ASD01913725
  41   43    0    0    0
SMALL
NO_CHARGES


@<TRIPOS>ATOM
   1 O1            -0.0140     1.3514    -0.0643 O.3     
   2 C2             0.0039    -0.0034    -0.0509 C.ar    
   3 C3            -1.1971    -0.7046    -0.0130 C.ar    
   4 C4            -1.1726    -2.0843     0.0004 C.ar    
   5 C5             0.0729    -2.7287    -0.0250 C.ar    
   6 C6             1.2342    -1.9554    -0.0627 C.ar    
   7 N7             1.1643    -0.6410    -0.0797 N.ar    
   8 C8             0.1542    -4.2023    -0.0116 C.2     
   9 N9             1.3564    -4.8111    -0.0362 N.am    
  10 O10           -0.8634    -4.8672     0.0217 O.2     
  11 C11            1.4372    -6.2062     0.0617 C.ar    
  12 C12            1.2501     2.0166    -0.1035 C.3     
  13 C13            1.0330     3.5079    -0.1131 C.ar    
  14 C14            0.9612     4.2223     1.0730 C.ar    
  15 C15            0.7616     5.5890     1.0250 C.ar    
  16 N16            0.6396     6.2127    -0.1305 N.ar    
  17 C17            0.7026     5.5656    -1.2778 C.ar    
  18 C18            0.9059     4.1989    -1.3084 C.ar    
  19 C19           -2.5102     0.0343     0.0137 C.3     
  20 C20            0.3669    -6.9940    -0.3377 C.ar    
  21 C21            0.4485    -8.3700    -0.2408 C.ar    
  22 C22            1.5967    -8.9640     0.2547 C.ar    
  23 C23            2.6668    -8.1811     0.6547 C.ar    
  24 C24            2.5924    -6.8042     0.5540 C.ar    
  25 F25            3.6361    -6.0401     0.9441 F       
  26 F26            1.6732   -10.3096     0.3485 F       
  27 H27           -2.0898    -2.6537     0.0301 H       
  28 H28            2.1991    -2.4401    -0.0821 H       
  29 H29            2.1657    -4.2833    -0.1218 H       
  30 H30            1.8336     1.7401     0.7747 H       
  31 H31            1.7879     1.7220    -1.0046 H       
  32 H32            1.0597     3.7171     2.0225 H       
  33 H33            0.7046     6.1527     1.9444 H       
  34 H34            0.5978     6.1105    -2.2044 H       
  35 H35            0.9569     3.6746    -2.2512 H       
  36 H36           -2.8533     0.2024    -1.0072 H       
  37 H37           -3.2496    -0.5580     0.5527 H       
  38 H38           -2.3774     0.9931     0.5148 H       
  39 H39           -0.5296    -6.5319    -0.7237 H       
  40 H40           -0.3846    -8.9829    -0.5517 H       
  41 H41            3.5613    -8.6465     1.0416 H       
@<TRIPOS>BOND
   1    1    2 1
   2    1   12 1
   3    2    3 ar
   4    2    7 ar
   5    3    4 ar
   6    3   19 1
   7    4    5 ar
   8    4   27 1
   9    5    6 ar
  10    5    8 1
  11    6    7 ar
  12    6   28 1
  13    8    9 am
  14    8   10 2
  15    9   11 1
  16    9   29 1
  17   11   20 ar
  18   11   24 ar
  19   12   13 1
  20   12   30 1
  21   12   31 1
  22   13   14 ar
  23   13   18 ar
  24   14   15 ar
  25   14   32 1
  26   15   16 ar
  27   15   33 1
  28   16   17 ar
  29   17   18 ar
  30   17   34 1
  31   18   35 1
  32   19   36 1
  33   19   37 1
  34   19   38 1
  35   20   21 ar
  36   20   39 1
  37   21   22 ar
  38   21   40 1
  39   22   23 ar
  40   22   26 1
  41   23   24 ar
  42   23   41 1
  43   24   25 1

#	End of record

