#	Name: ASD01911984
#	Creating user name:	WinNT
#	Creation time:	15. 06. 2019 19:58

#	Modifying user name:	WinNT
#	Modification time:	15. 06. 2019 19:58

#	Program:	/corina/corina34_cracker 3.40 0067  02.08.2006

@<TRIPOS>MOLECULE
ASD01911984
  39   41    0    0    0
SMALL
NO_CHARGES


@<TRIPOS>ATOM
   1 C1            -1.4592     1.2100     1.7764 C.ar    
   2 C2            -1.3769    -0.1717     1.6208 C.ar    
   3 C3            -1.5430    -0.9731     2.7478 C.ar    
   4 N4            -1.7712    -0.3972     3.9164 N.ar    
   5 C5            -1.8420     0.9146     4.0220 C.ar    
   6 N6            -1.6904     1.7072     2.9800 N.ar    
   7 N7            -1.1345    -0.7391     0.3666 N.pl3   
   8 C8            -1.0288    -2.1259     0.2360 C.ar    
   9 C9             0.3004    -4.0768    -0.2083 C.ar    
  10 C10           -0.8129    -4.8785    -0.0250 C.ar    
  11 C11           -2.0396    -4.3051     0.2842 C.ar    
  12 C12           -2.1476    -2.9276     0.4146 C.ar    
  13 N13           -3.1641    -5.1157     0.4689 N.am    
  14 C14           -3.0283    -6.3442     1.0063 C.2     
  15 C15           -4.1995    -7.2405     1.1067 C.ar    
  16 O16           -1.9427    -6.7152     1.4084 O.2     
  17 C17           -4.0620    -8.5133     1.6627 C.ar    
  18 C18            0.1954    -2.7034    -0.0785 C.ar    
  19 C19           -0.9913     0.1206    -0.8110 C.3     
  20 C20           -5.1584    -9.3461     1.7540 C.ar    
  21 C21           -6.3929    -8.9229     1.2962 C.ar    
  22 C22           -6.5375    -7.6606     0.7424 C.ar    
  23 C23           -5.4484    -6.8153     0.6511 C.ar    
  24 F24           -7.7462    -7.2541     0.2963 F       
  25 F25            1.4925    -4.6366    -0.5095 F       
  26 H26           -1.3317     1.8657     0.9278 H       
  27 H27           -1.4867    -2.0487     2.6686 H       
  28 H28           -2.0300     1.3530     4.9910 H       
  29 H29           -0.7278    -5.9507    -0.1229 H       
  30 H30           -3.1007    -2.4802     0.6550 H       
  31 H31           -4.0418    -4.7937     0.2103 H       
  32 H32           -3.0989    -8.8460     2.0205 H       
  33 H33            1.0654    -2.0797    -0.2220 H       
  34 H34            0.0562     0.3952    -0.9352 H       
  35 H35           -1.3338    -0.4155    -1.6961 H       
  36 H36           -1.5898     1.0218    -0.6778 H       
  37 H37           -5.0522   -10.3312     2.1839 H       
  38 H38           -7.2477    -9.5788     1.3702 H       
  39 H39           -5.5612    -5.8317     0.2195 H       
@<TRIPOS>BOND
   1    1    2 ar
   2    1    6 ar
   3    1   26 1
   4    2    3 ar
   5    2    7 1
   6    3    4 ar
   7    3   27 1
   8    4    5 ar
   9    5    6 ar
  10    5   28 1
  11    7    8 1
  12    7   19 1
  13    8   18 ar
  14    8   12 ar
  15    9   10 ar
  16    9   25 1
  17    9   18 ar
  18   10   11 ar
  19   10   29 1
  20   11   12 ar
  21   11   13 1
  22   12   30 1
  23   13   14 am
  24   13   31 1
  25   14   15 1
  26   14   16 2
  27   15   17 ar
  28   15   23 ar
  29   17   20 ar
  30   17   32 1
  31   18   33 1
  32   19   34 1
  33   19   35 1
  34   19   36 1
  35   20   21 ar
  36   20   37 1
  37   21   22 ar
  38   21   38 1
  39   22   23 ar
  40   22   24 1
  41   23   39 1

#	End of record

