#	Name: ASD01001003
#	Creating user name:	WinNT
#	Creation time:	15. 06. 2019 18:54

#	Modifying user name:	WinNT
#	Modification time:	15. 06. 2019 18:54

#	Program:	/corina/corina34_cracker 3.40 0067  02.08.2006

@<TRIPOS>MOLECULE
ASD01001003
  63   66    0    0    0
SMALL
NO_CHARGES


@<TRIPOS>ATOM
   1 C1             1.4559     0.8604     2.1942 C.ar    
   2 C2             1.6456    -0.4143     1.6943 C.ar    
   3 C3             0.6338     1.7492     1.5271 C.ar    
   4 C4             1.0132    -0.8003     0.5272 C.ar    
   5 C5             0.0013     1.3633     0.3601 C.ar    
   6 C6             0.1907     0.0884    -0.1396 C.ar    
   7 C7             1.2208    -2.1896    -0.0183 C.3     
   8 C8             0.6478    -2.2738    -1.4096 C.ar    
   9 C9             2.6955    -2.4965    -0.0631 C.ar    
  10 S10            0.3853    -3.3912     1.0535 S.3     
  11 C11            1.0671    -1.3881    -2.3846 C.ar    
  12 C12           -0.2931    -3.2403    -1.7123 C.ar    
  13 C13            3.1342    -3.8012     0.0646 C.ar    
  14 C14            3.6093    -1.4741    -0.2374 C.ar    
  15 C15            0.5415    -1.4653    -3.6608 C.ar    
  16 C16           -0.8187    -3.3175    -2.9884 C.ar    
  17 C17            4.4869    -4.0828     0.0236 C.ar    
  18 C18            4.9621    -1.7556    -0.2785 C.ar    
  19 C19           -0.4032    -2.4285    -3.9620 C.ar    
  20 C20            5.4010    -3.0597    -0.1455 C.ar    
  21 C21           -1.3108    -2.7533     1.1371 C.3     
  22 C22           -2.1263    -3.5999     2.1165 C.3     
  23 N23           -1.5835    -3.4396     3.4721 N.3     
  24 C24            6.8757    -3.3666    -0.1902 C.3     
  25 C25            7.3004    -4.0220     1.1255 C.3     
  26 C26            8.7977    -4.3336     1.0801 C.3     
  27 C27            9.0850    -5.2877    -0.0810 C.3     
  28 C28            8.6603    -4.6324    -1.3967 C.3     
  29 C29            7.1631    -4.3207    -1.3513 C.3     
  30 C30           -3.5639    -3.1484     2.0944 C.2     
  31 O31           -3.9809    -2.4173     2.9613 O.2     
  32 O32           -4.3811    -3.5584     1.1116 O.3     
  33 H33            1.9465     1.1605     3.1084 H       
  34 H34            2.2883    -1.1086     2.2152 H       
  35 H35            0.4853     2.7450     1.9179 H       
  36 H36           -0.6415     2.0575    -0.1607 H       
  37 H37           -0.3029    -0.2129    -1.0518 H       
  38 H38            1.8052    -0.6357    -2.1492 H       
  39 H39           -0.6172    -3.9352    -0.9518 H       
  40 H40            2.4200    -4.6005     0.1967 H       
  41 H41            3.2664    -0.4553    -0.3420 H       
  42 H42            0.8686    -0.7729    -4.4223 H       
  43 H43           -1.5535    -4.0728    -3.2250 H       
  44 H44            4.8296    -5.1020     0.1241 H       
  45 H45            5.6760    -0.9568    -0.4150 H       
  46 H46           -0.8142    -2.4886    -4.9590 H       
  47 H47           -1.2933    -1.7184     1.4787 H       
  48 H48           -1.7664    -2.8018     0.1481 H       
  49 H49           -2.0703    -4.6485     1.8243 H       
  50 H50           -1.6243    -2.4753     3.7662 H       
  51 H51           -2.0640    -4.0381     4.1271 H       
  52 H52            7.4351    -2.4420    -0.3328 H       
  53 H53            7.0957    -3.3422     1.9526 H       
  54 H54            6.7410    -4.9465     1.2680 H       
  55 H55            9.3571    -3.4090     0.9375 H       
  56 H56            9.1002    -4.8004     2.0174 H       
  57 H57           10.1517    -5.5097    -0.1133 H       
  58 H58            8.5256    -6.2123     0.0616 H       
  59 H59            9.2197    -3.7078    -1.5392 H       
  60 H60            8.8650    -5.3121    -2.2238 H       
  61 H61            6.6037    -5.2453    -1.2087 H       
  62 H62            6.8605    -3.8539    -2.2886 H       
  63 H63           -5.2946    -3.2425     1.1398 H       
@<TRIPOS>BOND
   1    1    2 ar
   2    1    3 ar
   3    1   33 1
   4    2    4 ar
   5    2   34 1
   6    3    5 ar
   7    3   35 1
   8    4    6 ar
   9    4    7 1
  10    5    6 ar
  11    5   36 1
  12    6   37 1
  13    7    8 1
  14    7    9 1
  15    7   10 1
  16    8   11 ar
  17    8   12 ar
  18    9   13 ar
  19    9   14 ar
  20   10   21 1
  21   11   15 ar
  22   11   38 1
  23   12   16 ar
  24   12   39 1
  25   13   17 ar
  26   13   40 1
  27   14   18 ar
  28   14   41 1
  29   15   19 ar
  30   15   42 1
  31   16   19 ar
  32   16   43 1
  33   17   20 ar
  34   17   44 1
  35   18   20 ar
  36   18   45 1
  37   19   46 1
  38   20   24 1
  39   21   22 1
  40   21   47 1
  41   21   48 1
  42   22   23 1
  43   22   30 1
  44   22   49 1
  45   23   50 1
  46   23   51 1
  47   24   25 1
  48   24   29 1
  49   24   52 1
  50   25   26 1
  51   25   53 1
  52   25   54 1
  53   26   27 1
  54   26   55 1
  55   26   56 1
  56   27   28 1
  57   27   57 1
  58   27   58 1
  59   28   29 1
  60   28   59 1
  61   28   60 1
  62   29   61 1
  63   29   62 1
  64   30   31 2
  65   30   32 1
  66   32   63 1

#	End of record

