#	Name: ASD01815667
#	Creating user name:	WinNT
#	Creation time:	15. 06. 2019 19:33

#	Modifying user name:	WinNT
#	Modification time:	15. 06. 2019 19:33

#	Program:	/corina/corina34_cracker 3.40 0067  02.08.2006

@<TRIPOS>MOLECULE
ASD01815667
  59   61    0    0    0
SMALL
NO_CHARGES


@<TRIPOS>ATOM
   1 C1            -0.0169     1.3914     0.0097 C.ar    
   2 C2             0.0021    -0.0041     0.0020 C.ar    
   3 C3             1.2519     2.1507     0.0017 C.2     
   4 O4             1.2329     3.3660     0.0084 O.2     
   5 N5             2.4294     1.4952    -0.0131 N.am    
   6 C6             3.6865     2.2475    -0.0211 C.3     
   7 C7             4.7904     1.3913    -0.6459 C.3     
   8 N8             6.0553     2.1370    -0.6350 N.3     
   9 C9             6.4746     2.4512     0.7369 C.3     
  10 C10            5.4210     3.3391     1.4030 C.3     
  11 C11            4.0768     2.6060     1.4155 C.3     
  12 C12            7.1062     1.4017    -1.3512 C.3     
  13 C13            8.3697     2.2619    -1.4263 C.3     
  14 C14            9.4518     1.5060    -2.2037 C.3     
  15 N15            9.6528     0.1919    -1.5781 N.am    
  16 C16            8.4874    -0.6795    -1.3750 C.3     
  17 C17            7.4161     0.1009    -0.6068 C.3     
  18 C18           10.8828    -0.2069    -1.1981 C.2     
  19 O19           11.8388     0.5229    -1.3719 O.2     
  20 O20           11.0525    -1.4137    -0.6259 O.3     
  21 C21           12.4049    -1.7770    -0.2420 C.3     
  22 C22           12.3993    -3.1719     0.3865 C.3     
  23 C23           -1.1840    -0.7096     0.0096 C.ar    
  24 C24           -2.3924    -0.0384     0.0248 C.ar    
  25 C25           -2.4212     1.3498     0.0321 C.ar    
  26 C26           -1.2373     2.0675     0.0192 C.ar    
  27 O27           -3.6122     2.0045     0.0461 O.3     
  28 C28           -4.7940     1.2011     0.0527 C.3     
  29 H29            0.9444    -0.5316    -0.0102 H       
  30 H30            2.4446     0.5253    -0.0185 H       
  31 H31            3.5606     3.1604    -0.6032 H       
  32 H32            4.9058     0.4719    -0.0718 H       
  33 H33            4.5221     1.1462    -1.6736 H       
  34 H34            6.5821     1.5270     1.3045 H       
  35 H35            7.4297     2.9761     0.7135 H       
  36 H36            5.7250     3.5593     2.4263 H       
  37 H37            5.3229     4.2695     0.8437 H       
  38 H38            3.3137     3.2517     1.8499 H       
  39 H39            4.1644     1.6948     2.0073 H       
  40 H40            6.7641     1.1700    -2.3599 H       
  41 H41            8.1426     3.1982    -1.9360 H       
  42 H42            8.7265     2.4731    -0.4182 H       
  43 H43            9.1336     1.3735    -3.2378 H       
  44 H44           10.3838     2.0705    -2.1755 H       
  45 H45            8.0906    -0.9902    -2.3415 H       
  46 H46            8.7830    -1.5570    -0.7999 H       
  47 H47            7.7818     0.3325     0.3935 H       
  48 H48            6.5102    -0.5008    -0.5333 H       
  49 H49           13.0450    -1.7786    -1.1243 H       
  50 H50           12.7839    -1.0544     0.4806 H       
  51 H51           12.0202    -3.8946    -0.3361 H       
  52 H52           13.4145    -3.4447     0.6747 H       
  53 H53           11.7592    -3.1704     1.2687 H       
  54 H54           -1.1680    -1.7895     0.0033 H       
  55 H55           -3.3175    -0.5958     0.0307 H       
  56 H56           -1.2583     3.1473     0.0252 H       
  57 H57           -4.8137     0.5764    -0.8403 H       
  58 H58           -4.7977     0.5674     0.9395 H       
  59 H59           -5.6722     1.8467     0.0638 H       
@<TRIPOS>BOND
   1    1    2 ar
   2    1    3 1
   3    1   26 ar
   4    2   23 ar
   5    2   29 1
   6    3    4 2
   7    3    5 am
   8    5    6 1
   9    5   30 1
  10    6    7 1
  11    6   11 1
  12    6   31 1
  13    7    8 1
  14    7   32 1
  15    7   33 1
  16    8    9 1
  17    8   12 1
  18    9   10 1
  19    9   34 1
  20    9   35 1
  21   10   11 1
  22   10   36 1
  23   10   37 1
  24   11   38 1
  25   11   39 1
  26   12   13 1
  27   12   17 1
  28   12   40 1
  29   13   14 1
  30   13   41 1
  31   13   42 1
  32   14   15 1
  33   14   43 1
  34   14   44 1
  35   15   16 1
  36   15   18 am
  37   16   17 1
  38   16   45 1
  39   16   46 1
  40   17   47 1
  41   17   48 1
  42   18   19 2
  43   18   20 1
  44   20   21 1
  45   21   22 1
  46   21   49 1
  47   21   50 1
  48   22   51 1
  49   22   52 1
  50   22   53 1
  51   23   24 ar
  52   23   54 1
  53   24   25 ar
  54   24   55 1
  55   25   26 ar
  56   25   27 1
  57   26   56 1
  58   27   28 1
  59   28   57 1
  60   28   58 1
  61   28   59 1

#	End of record

