#	Name: ASD01001056
#	Creating user name:	WinNT
#	Creation time:	15. 06. 2019 18:55

#	Modifying user name:	WinNT
#	Modification time:	15. 06. 2019 18:55

#	Program:	/corina/corina34_cracker 3.40 0067  02.08.2006

@<TRIPOS>MOLECULE
ASD01001056
  45   47    0    0    0
SMALL
NO_CHARGES


@<TRIPOS>ATOM
   1 C1             0.2020     0.9804    -0.8990 C.ar    
   2 C2             0.3279    -0.3841    -0.7151 C.ar    
   3 C3             1.2839     1.8107    -0.6745 C.ar    
   4 C4             1.5356    -0.9179    -0.3068 C.ar    
   5 C5             2.4921     1.2767    -0.2661 C.ar    
   6 C6             2.6180    -0.0874    -0.0827 C.ar    
   7 C7             3.6720     2.1819    -0.0223 C.3     
   8 C8             3.2693     3.6117    -0.2767 C.ar    
   9 C9             4.1307     2.0357     1.4057 C.ar    
  10 C10            4.7698     1.8123    -0.9306 C.1     
  11 C11            2.3623     4.2338     0.5607 C.ar    
  12 C12            3.8112     4.3029    -1.3442 C.ar    
  13 C13            3.3890     1.2822     2.2962 C.ar    
  14 C14            5.2960     2.6506     1.8237 C.ar    
  15 C15            5.6454     1.5176    -1.6549 C.1     
  16 C16            1.9972     5.5470     0.3306 C.ar    
  17 C17            3.4418     5.6143    -1.5776 C.ar    
  18 C18            3.8127     1.1434     3.6046 C.ar    
  19 C19            5.7167     2.5166     3.1337 C.ar    
  20 C20            6.7433     1.1480    -2.5632 C.3     
  21 C21            2.5394     6.2383    -0.7366 C.ar    
  22 C22            4.9783     1.7579     4.0226 C.ar    
  23 N23            7.8935     2.0304    -2.3255 N.3     
  24 H24            7.0346     0.1139    -2.3792 H       
  25 C25            1.6725    -2.4051    -0.1053 C.3     
  26 H26           -0.7405     1.3970    -1.2224 H       
  27 H27           -0.5176    -1.0328    -0.8901 H       
  28 H28            1.1857     2.8765    -0.8185 H       
  29 H29            3.5616    -0.5044     0.2370 H       
  30 H30            1.9387     3.6936     1.3945 H       
  31 H31            4.5234     3.8184    -1.9957 H       
  32 H32            2.4783     0.8021     1.9697 H       
  33 H33            5.8780     3.2354     1.1268 H       
  34 H34            1.2881     6.0328     0.9845 H       
  35 H35            3.8654     6.1544    -2.4114 H       
  36 H36            3.2329     0.5552     4.3005 H       
  37 H37            6.6274     2.9966     3.4602 H       
  38 H38            6.4116     1.2537    -3.5961 H       
  39 H39            2.2539     7.2642    -0.9165 H       
  40 H40            5.3070     1.6532     5.0460 H       
  41 H41            8.1795     1.9990    -1.3584 H       
  42 H42            8.6610     1.7966    -2.9374 H       
  43 H43            1.9902    -2.8704    -1.0384 H       
  44 H44            2.4145    -2.6000     0.6690 H       
  45 H45            0.7119    -2.8204     0.1992 H       
@<TRIPOS>BOND
   1    1    2 ar
   2    1    3 ar
   3    1   26 1
   4    2    4 ar
   5    2   27 1
   6    3    5 ar
   7    3   28 1
   8    4    6 ar
   9    4   25 1
  10    5    6 ar
  11    5    7 1
  12    6   29 1
  13    7   10 1
  14    7    8 1
  15    7    9 1
  16    8   12 ar
  17    8   11 ar
  18    9   14 ar
  19    9   13 ar
  20   10   15 3
  21   11   16 ar
  22   11   30 1
  23   12   17 ar
  24   12   31 1
  25   13   18 ar
  26   13   32 1
  27   14   19 ar
  28   14   33 1
  29   15   20 1
  30   16   21 ar
  31   16   34 1
  32   17   21 ar
  33   17   35 1
  34   18   22 ar
  35   18   36 1
  36   19   22 ar
  37   19   37 1
  38   20   23 1
  39   20   24 1
  40   20   38 1
  41   21   39 1
  42   22   40 1
  43   23   41 1
  44   23   42 1
  45   25   43 1
  46   25   44 1
  47   25   45 1

#	End of record

