#	Name: ASD02490008
#	Creating user name:	WinNT
#	Creation time:	15. 06. 2019 20:22

#	Modifying user name:	WinNT
#	Modification time:	15. 06. 2019 20:22

#	Program:	/corina/corina34_cracker 3.40 0067  02.08.2006

@<TRIPOS>MOLECULE
ASD02490008
  15   15    0    0    0
SMALL
NO_CHARGES


@<TRIPOS>ATOM
   1 C1            -0.0159     1.3232     0.0093 C.2     
   2 C2             0.0021    -0.0041     0.0020 C.2     
   3 S3             1.6530    -0.5991    -0.0169 S.3     
   4 C4             2.2992     0.9781    -0.0146 C.2     
   5 C5             1.3052     1.9077    -0.0002 C.2     
   6 C6             1.5506     3.3574     0.0045 C.2     
   7 O7             0.6141     4.1324     0.0169 O.2     
   8 O8             2.8141     3.8271    -0.0050 O.3     
   9 C9            -1.2251    -0.8787     0.0090 C.3     
  10 H10           -0.9250     1.9063     0.0169 H       
  11 H11            3.3542     1.2086    -0.0231 H       
  12 H12            2.9254     4.7877    -0.0014 H       
  13 H13           -1.5308    -1.0841    -1.0169 H       
  14 H14           -0.9996    -1.8171     0.5157 H       
  15 H15           -2.0326    -0.3677     0.5334 H       
@<TRIPOS>BOND
   1    1    2 2
   2    1    5 1
   3    1   10 1
   4    2    3 1
   5    2    9 1
   6    3    4 1
   7    4    5 2
   8    4   11 1
   9    5    6 1
  10    6    7 2
  11    6    8 1
  12    8   12 1
  13    9   13 1
  14    9   14 1
  15    9   15 1

#	End of record

