#	Name: ASD01811672
#	Creating user name:	WinNT
#	Creation time:	15. 06. 2019 19:27

#	Modifying user name:	WinNT
#	Modification time:	15. 06. 2019 19:27

#	Program:	/corina/corina34_cracker 3.40 0067  02.08.2006

@<TRIPOS>MOLECULE
ASD01811672
  51   54    0    0    0
SMALL
NO_CHARGES


@<TRIPOS>ATOM
   1 C1            -0.0158     1.3175     0.0093 C.ar    
   2 N2             0.0021    -0.0041     0.0020 N.ar    
   3 C3             1.1425    -0.6613    -0.0124 C.ar    
   4 C4             2.2841     1.4533    -0.0119 C.ar    
   5 N5             1.0890     2.0348     0.0026 N.ar    
   6 C6             1.5135    -2.1216    -0.0238 C.3     
   7 N7             2.9807    -2.1718    -0.0380 N.am    
   8 C8             3.4554    -0.9132    -0.0358 C.2     
   9 C9             2.3460     0.0496    -0.0200 C.ar    
  10 O10            3.4149     2.1958    -0.0183 O.3     
  11 C11            3.2584     3.6162    -0.0087 C.3     
  12 C12            4.6363     4.2812    -0.0179 C.3     
  13 C13            3.7932    -3.3908    -0.0516 C.3     
  14 C14            4.0582    -3.8020    -1.4769 C.ar    
  15 C15            3.1785    -4.6507    -2.1242 C.ar    
  16 C16            5.1773    -3.3248    -2.1351 C.ar    
  17 C17            5.4245    -3.6979    -3.4408 C.ar    
  18 C18            4.5446    -4.5567    -4.0956 C.ar    
  19 C19            3.4163    -5.0301    -3.4298 C.ar    
  20 C20            4.8054    -4.9614    -5.5001 C.2     
  21 C21            4.8017    -6.2777    -6.0013 C.2     
  22 N22            5.0731    -6.2265    -7.2785 N.2     
  23 N23            5.2593    -4.8868    -7.6404 N.pl3   
  24 C24            5.0865    -4.1255    -6.5411 C.2     
  25 C25            4.5325    -7.5275    -5.2034 C.3     
  26 C26            5.5809    -4.3965    -8.9829 C.3     
  27 C27            5.3973     3.8604    -1.2767 C.3     
  28 F28            4.4830     5.6717    -0.0085 F       
  29 F29            5.3535     3.8834     1.1155 F       
  30 O30            4.6341    -0.6150    -0.0450 O.2     
  31 H31           -0.9684     1.8264     0.0165 H       
  32 H32            1.1305    -2.6125     0.8709 H       
  33 H33            1.1135    -2.6029    -0.9162 H       
  34 H34            2.6995     3.9261    -0.8918 H       
  35 H35            2.7162     3.9159     0.8881 H       
  36 H36            4.7401    -3.2019     0.4542 H       
  37 H37            3.2591    -4.1892     0.4636 H       
  38 H38            2.3042    -5.0174    -1.6070 H       
  39 H39            5.8586    -2.6588    -1.6266 H       
  40 H40            6.2984    -3.3245    -3.9539 H       
  41 H41            2.7288    -5.6928    -3.9344 H       
  42 H42            5.1599    -3.0491    -6.4928 H       
  43 H43            3.4648    -7.7463    -5.2202 H       
  44 H44            5.0814    -8.3622    -5.6395 H       
  45 H45            4.8566    -7.3779    -4.1736 H       
  46 H46            4.6581    -4.1918    -9.5258 H       
  47 H47            6.1670    -3.4808    -8.9045 H       
  48 H48            6.1570    -5.1519    -9.5173 H       
  49 H49            4.8384     4.1703    -2.1597 H       
  50 H50            6.3789     4.3341    -1.2832 H       
  51 H51            5.5167     2.7770    -1.2840 H       
@<TRIPOS>BOND
   1    1    2 ar
   2    1    5 ar
   3    1   31 1
   4    2    3 ar
   5    3    6 1
   6    3    9 ar
   7    4    5 ar
   8    4   10 1
   9    4    9 ar
  10    6    7 1
  11    6   32 1
  12    6   33 1
  13    7    8 am
  14    7   13 1
  15    8    9 1
  16    8   30 2
  17   10   11 1
  18   11   12 1
  19   11   34 1
  20   11   35 1
  21   12   27 1
  22   12   28 1
  23   12   29 1
  24   13   14 1
  25   13   36 1
  26   13   37 1
  27   14   16 ar
  28   14   15 ar
  29   15   19 ar
  30   15   38 1
  31   16   17 ar
  32   16   39 1
  33   17   18 ar
  34   17   40 1
  35   18   19 ar
  36   18   20 1
  37   19   41 1
  38   20   21 1
  39   20   24 2
  40   21   22 2
  41   21   25 1
  42   22   23 1
  43   23   24 1
  44   23   26 1
  45   24   42 1
  46   25   43 1
  47   25   44 1
  48   25   45 1
  49   26   46 1
  50   26   47 1
  51   26   48 1
  52   27   49 1
  53   27   50 1
  54   27   51 1

#	End of record

