#	Name: ASD01882966
#	Creating user name:	WinNT
#	Creation time:	15. 06. 2019 19:45

#	Modifying user name:	WinNT
#	Modification time:	15. 06. 2019 19:45

#	Program:	/corina/corina34_cracker 3.40 0067  02.08.2006

@<TRIPOS>MOLECULE
ASD01882966
  36   38    0    0    0
SMALL
NO_CHARGES


@<TRIPOS>ATOM
   1 C1            -0.0170     1.4061     0.0098 C.2     
   2 C2             0.0021    -0.0041     0.0020 C.2     
   3 C3            -1.2283    -0.6974     0.0100 C.2     
   4 C4            -2.3897    -0.0086     0.0247 C.2     
   5 N5            -2.4074     1.3507     0.0322 N.am    
   6 C6            -1.2684     2.0676     0.0312 C.2     
   7 C7            -3.6944     2.0505     0.0477 C.3     
   8 C8            -4.1292     2.2864     1.4955 C.3     
   9 C9             1.2044     2.1535     0.0021 C.1     
  10 N10            2.1734     2.7464    -0.0039 N.1     
  11 O11           -1.3144     3.2860     0.0383 O.2     
  12 C12           -5.4531     3.0062     1.5115 C.ar    
  13 C13            1.2751    -0.7364    -0.0145 C.2     
  14 C14            1.7475    -1.5466     0.9780 C.2     
  15 C15            2.9904    -2.0357     0.5429 C.2     
  16 C16            3.2185    -1.5092    -0.6799 C.2     
  17 O17            2.1792    -0.7310    -1.0149 O.3     
  18 C18           -6.6321     2.2846     1.5184 C.ar    
  19 C19           -7.8465     2.9449     1.5329 C.ar    
  20 C20           -7.8818     4.3267     1.5411 C.ar    
  21 C21           -6.7028     5.0483     1.5351 C.ar    
  22 C22           -5.4884     4.3880     1.5249 C.ar    
  23 H23           -1.2403    -1.7773     0.0039 H       
  24 H24           -3.3246    -0.5492     0.0304 H       
  25 H25           -3.5931     3.0087    -0.4619 H       
  26 H26           -4.4433     1.4449    -0.4626 H       
  27 H27           -4.2305     1.3282     2.0052 H       
  28 H28           -3.3802     2.8919     2.0058 H       
  29 H29            1.2600    -1.7683     1.9158 H       
  30 H30            3.6413    -2.7060     1.0845 H       
  31 H31            4.0918    -1.6891    -1.2893 H       
  32 H32           -6.6045     1.2049     1.5120 H       
  33 H33           -8.7677     2.3811     1.5376 H       
  34 H34           -8.8306     4.8426     1.5518 H       
  35 H35           -6.7304     6.1280     1.5412 H       
  36 H36           -4.5672     4.9518     1.5203 H       
@<TRIPOS>BOND
   1    1    2 2
   2    1    9 1
   3    1    6 1
   4    2    3 1
   5    2   13 1
   6    3    4 2
   7    3   23 1
   8    4    5 1
   9    4   24 1
  10    5    7 1
  11    5    6 am
  12    6   11 2
  13    7    8 1
  14    7   25 1
  15    7   26 1
  16    8   12 1
  17    8   27 1
  18    8   28 1
  19    9   10 3
  20   12   18 ar
  21   12   22 ar
  22   13   14 2
  23   13   17 1
  24   14   15 1
  25   14   29 1
  26   15   16 2
  27   15   30 1
  28   16   17 1
  29   16   31 1
  30   18   19 ar
  31   18   32 1
  32   19   20 ar
  33   19   33 1
  34   20   21 ar
  35   20   34 1
  36   21   22 ar
  37   21   35 1
  38   22   36 1

#	End of record

