#	Name: ASD07730009
#	Creating user name:	WinNT
#	Creation time:	15. 06. 2019 21:11

#	Modifying user name:	WinNT
#	Modification time:	15. 06. 2019 21:11

#	Program:	/corina/corina34_cracker 3.40 0067  02.08.2006

@<TRIPOS>MOLECULE
ASD07730009
  33   35    0    0    0
SMALL
NO_CHARGES


@<TRIPOS>ATOM
   1 C1            -0.0163     1.3813    -0.0153 C.ar    
   2 C2             0.0029    -0.0056    -0.0291 C.ar    
   3 C3             1.1637     2.0929    -0.0163 C.ar    
   4 C4             2.3786     1.4130    -0.0313 C.ar    
   5 C5             2.3999     0.0090    -0.0453 C.ar    
   6 C6             1.1982    -0.6913    -0.0440 C.ar    
   7 C7             3.7905     1.8382    -0.0366 C.2     
   8 C8             4.5376     0.6973    -0.0530 C.2     
   9 N9             3.7222    -0.3846    -0.0581 N.pl3   
  10 C10            4.1799    -1.7761    -0.0742 C.3     
  11 C11            4.2931     3.2183    -0.0268 C.2     
  12 O12            3.5112     4.1505    -0.0128 O.2     
  13 N13            5.6204     3.4522    -0.0335 N.am    
  14 C14            6.0992     4.7622    -0.1370 C.ar    
  15 C15            7.2586     5.1343     0.5311 C.ar    
  16 C16            5.4194     5.6924    -0.9127 C.ar    
  17 C17            5.8951     6.9850    -1.0131 C.ar    
  18 C18            7.0468     7.3537    -0.3425 C.ar    
  19 C19            7.7289     6.4286     0.4265 C.ar    
  20 H20           -0.9603     1.9058    -0.0083 H       
  21 H21           -0.9278    -0.5534    -0.0278 H       
  22 H22            1.1462     3.1727    -0.0059 H       
  23 H23            1.2019    -1.7712    -0.0543 H       
  24 H24            5.6170     0.6617    -0.0612 H       
  25 H25            4.3003    -2.1309     0.9494 H       
  26 H26            3.4446    -2.3946    -0.5889 H       
  27 H27            5.1354    -1.8383    -0.5950 H       
  28 H28            6.2436     2.7119     0.0335 H       
  29 H29            7.7915     4.4123     1.1321 H       
  30 H30            4.5200     5.4050    -1.4370 H       
  31 H31            5.3672     7.7087    -1.6165 H       
  32 H32            7.4169     8.3651    -0.4229 H       
  33 H33            8.6279     6.7197     0.9493 H       
@<TRIPOS>BOND
   1    1    2 ar
   2    1    3 ar
   3    1   20 1
   4    2    6 ar
   5    2   21 1
   6    3    4 ar
   7    3   22 1
   8    4    5 ar
   9    4    7 1
  10    5    6 ar
  11    5    9 1
  12    6   23 1
  13    7    8 2
  14    7   11 1
  15    8    9 1
  16    8   24 1
  17    9   10 1
  18   10   25 1
  19   10   26 1
  20   10   27 1
  21   11   12 2
  22   11   13 am
  23   13   14 1
  24   13   28 1
  25   14   15 ar
  26   14   16 ar
  27   15   19 ar
  28   15   29 1
  29   16   17 ar
  30   16   30 1
  31   17   18 ar
  32   17   31 1
  33   18   19 ar
  34   18   32 1
  35   19   33 1

#	End of record

