#	Name: ASD00431327
#	Creating user name:	WinNT
#	Creation time:	15. 06. 2019 18:35

#	Modifying user name:	WinNT
#	Modification time:	15. 06. 2019 18:35

#	Program:	/corina/corina34_cracker 3.40 0067  02.08.2006

@<TRIPOS>MOLECULE
ASD00431327
  43   45    0    0    0
SMALL
NO_CHARGES


@<TRIPOS>ATOM
   1 C1            -0.0369     1.5817     0.0270 C.3     
   2 C2             0.0359     0.0650    -0.1606 C.3     
   3 O3             2.1031     2.4184    -1.0689 O.3     
   4 N4             3.1815     2.8779    -0.7724 N.2     
   5 C5             3.3119     2.9895     0.5292 C.2     
   6 C6             2.0926     2.5095     1.0900 C.2     
   7 C7             1.3560     2.1569     0.0137 C.2     
   8 S8             4.6335     3.6447     3.0135 S.3     
   9 C9             6.2078     4.2879     2.8398 C.2     
  10 N10            6.5267     4.3650     1.5844 N.2     
  11 C11            5.6311     3.9568     0.7124 C.2     
  12 C12            4.4843     3.5068     1.2634 C.2     
  13 O13            7.0076     4.6639     3.8658 O.3     
  14 C14            8.2906     5.0128     3.5805 C.ar    
  15 C15            9.0963     5.5641     4.5679 C.ar    
  16 C16           10.4001     5.9180     4.2774 C.ar    
  17 C17           10.9034     5.7223     2.9995 C.ar    
  18 C18           10.0982     5.1720     2.0135 C.ar    
  19 C19            8.7963     4.8127     2.3049 C.ar    
  20 O20           12.1863     6.0705     2.7136 O.3     
  21 C21           12.9153     6.7559     3.7338 C.3     
  22 C22           13.7003     5.7420     4.5684 C.3     
  23 C23           13.8866     7.7464     3.0886 C.3     
  24 Cl24           8.4657     5.8093     6.1666 Cl      
  25 N25           -0.8214     2.1732    -1.0651 N.3     
  26 H26           -0.5141     1.8074     0.9807 H       
  27 H27            0.5130    -0.1606    -1.1143 H       
  28 H28            0.6180    -0.3738     0.6497 H       
  29 H29           -0.9716    -0.3510    -0.1510 H       
  30 H30            1.8208     2.4428     2.1331 H       
  31 H31            5.7988     3.9801    -0.3542 H       
  32 H32           11.0270     6.3472     5.0449 H       
  33 H33           10.4902     5.0205     1.0187 H       
  34 H34            8.1711     4.3798     1.5380 H       
  35 H35           12.2200     7.2954     4.3770 H       
  36 H36           14.3955     5.2025     3.9252 H       
  37 H37           14.2563     6.2648     5.3466 H       
  38 H38           13.0083     5.0363     5.0280 H       
  39 H39           13.3273     8.4688     2.4940 H       
  40 H40           14.4426     8.2693     3.8668 H       
  41 H41           14.5818     7.2070     2.4454 H       
  42 H42           -0.3659     2.0333    -1.9545 H       
  43 H43           -1.7601     1.8033    -1.0775 H       
@<TRIPOS>BOND
   1    1    2 1
   2    1    7 1
   3    1   25 1
   4    1   26 1
   5    2   27 1
   6    2   28 1
   7    2   29 1
   8    3    4 1
   9    3    7 1
  10    4    5 2
  11    5    6 1
  12    5   12 1
  13    6    7 2
  14    6   30 1
  15    8    9 1
  16    8   12 1
  17    9   10 2
  18    9   13 1
  19   10   11 1
  20   11   12 2
  21   11   31 1
  22   13   14 1
  23   14   15 ar
  24   14   19 ar
  25   15   16 ar
  26   15   24 1
  27   16   17 ar
  28   16   32 1
  29   17   18 ar
  30   17   20 1
  31   18   19 ar
  32   18   33 1
  33   19   34 1
  34   20   21 1
  35   21   22 1
  36   21   23 1
  37   21   35 1
  38   22   36 1
  39   22   37 1
  40   22   38 1
  41   23   39 1
  42   23   40 1
  43   23   41 1
  44   25   42 1
  45   25   43 1

#	End of record

