#	Name: ASD01140560
#	Creating user name:	WinNT
#	Creation time:	15. 06. 2019 19:01

#	Modifying user name:	WinNT
#	Modification time:	15. 06. 2019 19:01

#	Program:	/corina/corina34_cracker 3.40 0067  02.08.2006

@<TRIPOS>MOLECULE
ASD01140560
  63   67    0    0    0
SMALL
NO_CHARGES


@<TRIPOS>ATOM
   1 C1            -0.2922     1.5123    -0.3489 C.3     
   2 C2            -0.2149    -0.0146    -0.2861 C.3     
   3 C3             0.4429    -0.4383     1.0285 C.3     
   4 C4             1.8535     0.1490     1.1066 C.3     
   5 C5             1.7753     1.6761     1.0429 C.3     
   6 C6             1.1207     2.0962    -0.2757 C.3     
   7 C7             1.9514     1.5644    -1.4444 C.3     
   8 C8             3.1876     2.2606     1.1185 C.3     
   9 C9             4.0201     1.7362    -0.0534 C.3     
  10 C10            3.3673     2.1569    -1.3707 C.3     
  11 C11            2.1252     1.4611    -3.9658 C.3     
  12 C12            1.2703     1.9033    -2.7660 C.3     
  13 C13            3.4724     2.1444    -3.8362 C.3     
  14 C14            4.4980     1.8406    -4.9234 C.3     
  15 C15            4.1475     1.6016    -2.5476 C.3     
  16 C16            5.5803     2.1216    -2.7055 C.3     
  17 C17            5.8733     1.8801    -4.2116 C.3     
  18 C18           -0.3896     0.0768     2.2044 C.3     
  19 H19            1.1807     2.0454     1.8784 H       
  20 H20            3.3147     3.2443    -1.4247 H       
  21 C21            3.2759     3.6572    -3.7193 C.3     
  22 C22            4.4392     2.8890    -6.0044 C.2     
  23 O23            5.1687     3.8501    -5.9537 O.2     
  24 C24            3.4701     2.7381    -7.1485 C.3     
  25 O25            0.5170    -1.8642     1.0861 O.3     
  26 H26            2.0190     0.4795    -1.3634 H       
  27 H27            4.1263     0.5119    -2.5361 H       
  28 H28            1.0687     3.1837    -0.3265 H       
  29 N29            3.6066     3.8786    -8.0578 N.pl3   
  30 N30            2.9455     4.9770    -7.9566 N.2     
  31 N31            4.4080     3.9199    -9.0628 N.2     
  32 C32            4.2764     5.0830    -9.6595 C.2     
  33 C33            3.3112     5.7805    -8.9295 C.2     
  34 H34           -0.7623     1.8143    -1.2848 H       
  35 H35           -0.8820     1.8813     0.4901 H       
  36 H36           -1.2204    -0.4318    -0.3403 H       
  37 H37            0.3771    -0.3832    -1.1239 H       
  38 H38            2.3210    -0.1519     2.0442 H       
  39 H39            2.4473    -0.2195     0.2701 H       
  40 H40            3.1339     3.3481     1.0681 H       
  41 H41            3.6542     1.9630     2.0575 H       
  42 H42            5.0268     2.1506     0.0019 H       
  43 H43            4.0717     0.6485    -0.0045 H       
  44 H44            2.2552     0.3790    -3.9498 H       
  45 H45            1.6438     1.7639    -4.8957 H       
  46 H46            0.3055     1.3981    -2.8099 H       
  47 H47            1.1107     2.9802    -2.8192 H       
  48 H48            4.3194     0.8516    -5.3454 H       
  49 H49            5.6334     3.1841    -2.4678 H       
  50 H50            6.2687     1.5509    -2.0823 H       
  51 H51            6.3908     0.9300    -4.3444 H       
  52 H52            6.4778     2.6948    -4.6104 H       
  53 H53           -1.3943    -0.3421     2.1492 H       
  54 H54            0.0790    -0.2250     3.1411 H       
  55 H55           -0.4465     1.1644     2.1604 H       
  56 H56            2.6286     3.8749    -2.8697 H       
  57 H57            4.2425     4.1389    -3.5724 H       
  58 H58            2.8164     4.0356    -4.6324 H       
  59 H59            3.6854     1.8157    -7.6878 H       
  60 H60            2.4522     2.7028    -6.7603 H       
  61 H61           -0.3427    -2.3047     1.0422 H       
  62 H62            4.8079     5.4299   -10.5333 H       
  63 H63            2.9428     6.7770    -9.1237 H       
@<TRIPOS>BOND
   1    1    2 1
   2    1    6 1
   3    1   34 1
   4    1   35 1
   5    2    3 1
   6    2   36 1
   7    2   37 1
   8    3    4 1
   9    3   18 1
  10    3   25 1
  11    4    5 1
  12    4   38 1
  13    4   39 1
  14    5    6 1
  15    5    8 1
  16    5   19 1
  17    6    7 1
  18    6   28 1
  19    7   10 1
  20    7   26 1
  21    7   12 1
  22    8    9 1
  23    8   40 1
  24    8   41 1
  25    9   10 1
  26    9   42 1
  27    9   43 1
  28   10   15 1
  29   10   20 1
  30   11   12 1
  31   11   13 1
  32   11   44 1
  33   11   45 1
  34   12   46 1
  35   12   47 1
  36   13   15 1
  37   13   21 1
  38   13   14 1
  39   14   17 1
  40   14   22 1
  41   14   48 1
  42   15   16 1
  43   15   27 1
  44   16   17 1
  45   16   49 1
  46   16   50 1
  47   17   51 1
  48   17   52 1
  49   18   53 1
  50   18   54 1
  51   18   55 1
  52   21   56 1
  53   21   57 1
  54   21   58 1
  55   22   23 2
  56   22   24 1
  57   24   29 1
  58   24   59 1
  59   24   60 1
  60   25   61 1
  61   29   31 1
  62   29   30 1
  63   30   33 2
  64   31   32 2
  65   32   33 1
  66   32   62 1
  67   33   63 1

#	End of record

