#	Name: ASD00170779
#	Creating user name:	WinNT
#	Creation time:	15. 06. 2019 18:32

#	Modifying user name:	WinNT
#	Modification time:	15. 06. 2019 18:32

#	Program:	/corina/corina34_cracker 3.40 0067  02.08.2006

@<TRIPOS>MOLECULE
ASD00170779
  60   64    0    0    0
SMALL
NO_CHARGES


@<TRIPOS>ATOM
   1 Cl1            3.6157     7.3510    -5.4406 Cl      
   2 C2             2.6772     7.0640    -4.0087 C.ar    
   3 C3             3.1793     6.2502    -3.0064 C.ar    
   4 C4             2.4383     6.0181    -1.8669 C.ar    
   5 C5             1.1797     6.6058    -1.7243 C.ar    
   6 C6             0.6792     7.4255    -2.7378 C.ar    
   7 C7             1.4318     7.6543    -3.8704 C.ar    
   8 C8             0.3801     6.3606    -0.5053 C.2     
   9 O9             0.7809     5.5805     0.3390 O.2     
  10 C10           -0.8954     7.0567    -0.3132 C.2     
  11 C11           -2.1125     6.4968    -0.6243 C.2     
  12 S12           -3.3760     7.5874    -0.2720 S.3     
  13 C13           -2.2471     8.8057     0.2989 C.2     
  14 C14           -0.9897     8.3502     0.2092 C.2     
  15 C15            0.2114     9.1612     0.6223 C.3     
  16 C16            0.4956     8.9312     2.1080 C.3     
  17 C17            0.7255     7.4394     2.3583 C.3     
  18 C18            1.7446     9.7152     2.5157 C.3     
  19 C19           -0.6992     9.4090     2.9357 C.3     
  20 C20           -2.6291    10.1388     0.8106 C.ar    
  21 C21           -2.0163    11.2854     0.3041 C.ar    
  22 C22           -2.3768    12.5274     0.7849 C.ar    
  23 C23           -3.3452    12.6386     1.7695 C.ar    
  24 C24           -3.9582    11.5045     2.2775 C.ar    
  25 C25           -3.6098    10.2561     1.8000 C.ar    
  26 F26           -4.2076     9.1505     2.2955 F       
  27 F27           -3.6929    13.8577     2.2365 F       
  28 N28           -2.2878     5.2253    -1.1506 N.am    
  29 C29           -2.3558     4.1003    -0.4161 C.2     
  30 O30           -2.2749     4.0379     0.7940 O.2     
  31 C31           -2.5456     2.9532    -1.3282 C.ar    
  32 C32           -2.5813     3.4964    -2.6289 C.ar    
  33 C33           -2.4178     4.9557    -2.4621 C.2     
  34 O34           -2.3967     5.7737    -3.3594 O.2     
  35 C35           -2.7500     2.6598    -3.7206 C.ar    
  36 C36           -2.8824     1.2939    -3.5256 C.ar    
  37 C37           -2.8475     0.7613    -2.2504 C.ar    
  38 C38           -2.6801     1.5857    -1.1488 C.ar    
  39 H39            4.1529     5.7963    -3.1179 H       
  40 H40            2.8305     5.3829    -1.0865 H       
  41 H41           -0.2936     7.8827    -2.6330 H       
  42 H42            1.0459     8.2885    -4.6548 H       
  43 H43            1.0768     8.8538     0.0351 H       
  44 H44            0.0124    10.2189     0.4499 H       
  45 H45            1.5767     7.0990     1.7687 H       
  46 H46            0.9279     7.2756     3.4168 H       
  47 H47           -0.1643     6.8809     2.0679 H       
  48 H48            1.5808    10.7779     2.3374 H       
  49 H49            1.9470     9.5513     3.5741 H       
  50 H50            2.5958     9.3748     1.9261 H       
  51 H51           -1.5640     8.7808     2.7217 H       
  52 H52           -0.4561     9.3434     3.9962 H       
  53 H53           -0.9289    10.4431     2.6789 H       
  54 H54           -1.2608    11.2008    -0.4629 H       
  55 H55           -1.9027    13.4151     0.3929 H       
  56 H56           -4.7124    11.5971     3.0450 H       
  57 H57           -2.7784     3.0704    -4.7191 H       
  58 H58           -3.0143     0.6411    -4.3759 H       
  59 H59           -2.9521    -0.3046    -2.1115 H       
  60 H60           -2.6534     1.1640    -0.1549 H       
@<TRIPOS>BOND
   1    1    2 1
   2    2    3 ar
   3    2    7 ar
   4    3    4 ar
   5    3   39 1
   6    4    5 ar
   7    4   40 1
   8    5    6 ar
   9    5    8 1
  10    6    7 ar
  11    6   41 1
  12    7   42 1
  13    8    9 2
  14    8   10 1
  15   10   11 2
  16   10   14 1
  17   11   12 1
  18   11   28 1
  19   12   13 1
  20   13   14 2
  21   13   20 1
  22   14   15 1
  23   15   16 1
  24   15   43 1
  25   15   44 1
  26   16   17 1
  27   16   18 1
  28   16   19 1
  29   17   45 1
  30   17   46 1
  31   17   47 1
  32   18   48 1
  33   18   49 1
  34   18   50 1
  35   19   51 1
  36   19   52 1
  37   19   53 1
  38   20   21 ar
  39   20   25 ar
  40   21   22 ar
  41   21   54 1
  42   22   23 ar
  43   22   55 1
  44   23   24 ar
  45   23   27 1
  46   24   25 ar
  47   24   56 1
  48   25   26 1
  49   28   29 am
  50   28   33 am
  51   29   30 2
  52   29   31 1
  53   31   32 ar
  54   31   38 ar
  55   32   33 1
  56   32   35 ar
  57   33   34 2
  58   35   36 ar
  59   35   57 1
  60   36   37 ar
  61   36   58 1
  62   37   38 ar
  63   37   59 1
  64   38   60 1

#	End of record

