#	Name: ASD03540448
#	Creating user name:	WinNT
#	Creation time:	15. 06. 2019 20:43

#	Modifying user name:	WinNT
#	Modification time:	15. 06. 2019 20:43

#	Program:	/corina/corina34_cracker 3.40 0067  02.08.2006

@<TRIPOS>MOLECULE
ASD03540448
  74   77    0    0    0
SMALL
NO_CHARGES


@<TRIPOS>ATOM
   1 N1            -0.0161     1.3396     0.0094 N.am    
   2 C2             0.0021    -0.0041     0.0020 C.2     
   3 N3             1.1390    -0.7172    -0.0122 N.am    
   4 C4             2.3459    -0.1106    -0.0200 C.2     
   5 C5             2.3857     1.3633    -0.0129 C.ar    
   6 C6             3.5871     2.0607    -0.0197 C.ar    
   7 C7             3.5659     3.4548    -0.0121 C.ar    
   8 C8             2.3437     4.1382     0.0023 C.ar    
   9 C9             1.1622     3.4519     0.0094 C.ar    
  10 C10            1.1637     2.0628     0.0020 C.ar    
  11 C11            4.8337     4.2115    -0.0186 C.2     
  12 O12            5.8952     3.6190    -0.0307 O.2     
  13 N13            4.8141     5.5591    -0.0113 N.am    
  14 C14            6.0721     6.3100    -0.0178 C.3     
  15 C15            5.7753     7.7874    -0.0074 C.ar    
  16 C16            5.6494     8.4577     1.1954 C.ar    
  17 C17            5.3773     9.8120     1.2076 C.ar    
  18 C18            5.2304    10.4996     0.0116 C.ar    
  19 C19            5.3572     9.8248    -1.1939 C.ar    
  20 C20            5.6349     8.4716    -1.2007 C.ar    
  21 O21            4.9624    11.8319     0.0210 O.3     
  22 C22            4.8240    12.4747    -1.2477 C.3     
  23 O23            3.3721    -0.7626    -0.0320 O.2     
  24 O24           -1.0576    -0.5997     0.0089 O.2     
  25 C25           -1.2992     2.0466     0.0193 C.3     
  26 C26            1.0697    -2.1806    -0.0189 C.3     
  27 C27            1.0327    -2.6752    -1.4420 C.ar    
  28 C28            2.2115    -2.9586    -2.1061 C.ar    
  29 C29            2.1775    -3.4122    -3.4115 C.ar    
  30 C30            0.9648    -3.5829    -4.0526 C.ar    
  31 C31           -0.2140    -3.3004    -3.3881 C.ar    
  32 C32           -0.1803    -2.8509    -2.0813 C.ar    
  33 S33            0.9216    -4.1600    -5.7168 S.o2    
  34 O34           -0.3144    -3.7195    -6.2623 O.2     
  35 O35            2.1822    -3.8358    -6.2868 O.2     
  36 N36            0.8451    -5.8133    -5.6605 N.am    
  37 C37           -0.3312    -6.4731    -5.0884 C.3     
  38 C38           -0.3305    -7.9507    -5.4853 C.3     
  39 N39           -1.5100    -8.6124    -4.9117 N.3     
  40 C40           -1.6734    -9.9653    -5.4601 C.3     
  41 C41           -1.4344    -8.6444    -3.4450 C.3     
  42 H42            4.5271     1.5290    -0.0304 H       
  43 H43            2.3349     5.2181     0.0081 H       
  44 H44            0.2260     3.9901     0.0212 H       
  45 H45            3.9672     6.0319    -0.0017 H       
  46 H46            6.6548     6.0502     0.8660 H       
  47 H47            6.6399     6.0598    -0.9139 H       
  48 H48            5.7635     7.9218     2.1261 H       
  49 H49            5.2787    10.3350     2.1473 H       
  50 H50            5.2433    10.3579    -2.1262 H       
  51 H51            5.7384     7.9468    -2.1390 H       
  52 H52            4.0047    12.0150    -1.8005 H       
  53 H53            4.6120    13.5333    -1.0975 H       
  54 H54            5.7496    12.3662    -1.8129 H       
  55 H55           -2.1134     1.3219     0.0192 H       
  56 H56           -1.3652     2.6671     0.9130 H       
  57 H57           -1.3736     2.6768    -0.8669 H       
  58 H58            1.9463    -2.5881     0.4847 H       
  59 H59            0.1684    -2.5041     0.5017 H       
  60 H60            3.1590    -2.8252    -1.6052 H       
  61 H61            3.0985    -3.6329    -3.9306 H       
  62 H62           -1.1615    -3.4334    -3.8891 H       
  63 H63           -1.1014    -2.6337    -1.5610 H       
  64 H64            1.5792    -6.3448    -6.0063 H       
  65 H65           -0.3027    -6.3887    -4.0021 H       
  66 H66           -1.2353    -5.9958    -5.4665 H       
  67 H67           -0.3589    -8.0352    -6.5717 H       
  68 H68            0.5736    -8.4280    -5.1073 H       
  69 H69           -0.7907   -10.5609    -5.2271 H       
  70 H70           -2.5537   -10.4324    -5.0187 H       
  71 H71           -1.7969    -9.9066    -6.5415 H       
  72 H72           -1.3842    -7.6254    -3.0614 H       
  73 H73           -2.3198    -9.1395    -3.0463 H       
  74 H74           -0.5430    -9.1921    -3.1390 H       
@<TRIPOS>BOND
   1    1    2 am
   2    1   10 1
   3    1   25 1
   4    2    3 am
   5    2   24 2
   6    3    4 am
   7    3   26 1
   8    4    5 1
   9    4   23 2
  10    5    6 ar
  11    5   10 ar
  12    6    7 ar
  13    6   42 1
  14    7    8 ar
  15    7   11 1
  16    8    9 ar
  17    8   43 1
  18    9   10 ar
  19    9   44 1
  20   11   12 2
  21   11   13 am
  22   13   14 1
  23   13   45 1
  24   14   15 1
  25   14   46 1
  26   14   47 1
  27   15   16 ar
  28   15   20 ar
  29   16   17 ar
  30   16   48 1
  31   17   18 ar
  32   17   49 1
  33   18   19 ar
  34   18   21 1
  35   19   20 ar
  36   19   50 1
  37   20   51 1
  38   21   22 1
  39   22   52 1
  40   22   53 1
  41   22   54 1
  42   25   55 1
  43   25   56 1
  44   25   57 1
  45   26   27 1
  46   26   58 1
  47   26   59 1
  48   27   28 ar
  49   27   32 ar
  50   28   29 ar
  51   28   60 1
  52   29   30 ar
  53   29   61 1
  54   30   31 ar
  55   30   33 1
  56   31   32 ar
  57   31   62 1
  58   32   63 1
  59   33   34 2
  60   33   35 2
  61   33   36 am
  62   36   37 1
  63   36   64 1
  64   37   38 1
  65   37   65 1
  66   37   66 1
  67   38   39 1
  68   38   67 1
  69   38   68 1
  70   39   40 1
  71   39   41 1
  72   40   69 1
  73   40   70 1
  74   40   71 1
  75   41   72 1
  76   41   73 1
  77   41   74 1

#	End of record

