#	Name: ASD04590991
#	Creating user name:	WinNT
#	Creation time:	15. 06. 2019 20:51

#	Modifying user name:	WinNT
#	Modification time:	15. 06. 2019 20:51

#	Program:	/corina/corina34_cracker 3.40 0067  02.08.2006

@<TRIPOS>MOLECULE
ASD04590991
  56   61    0    0    0
SMALL
NO_CHARGES


@<TRIPOS>ATOM
   1 N1            -0.0170     1.3235    -0.0111 N.ar    
   2 C2             0.0017    -0.0035    -0.0048 C.ar    
   3 N3             1.1296    -0.6948    -0.0122 N.ar    
   4 C4             2.3050    -0.0727    -0.0263 C.ar    
   5 C5             2.3190     1.3364    -0.0332 C.ar    
   6 C6             1.1070     2.0203    -0.0250 C.ar    
   7 N7             3.6031    -0.5195    -0.0364 N.pl3   
   8 C8             4.4824     0.5494    -0.0499 C.ar    
   9 C9             3.7313     1.7383    -0.0485 C.ar    
  10 C10            5.8681     0.6416    -0.0634 C.ar    
  11 N11            6.4614     1.8179    -0.0743 N.ar    
  12 C12            5.7851     2.9531    -0.0733 C.ar    
  13 C13            4.4065     2.9583    -0.0612 C.ar    
  14 N14           -1.2019    -0.6887     0.0103 N.pl3   
  15 C15           -2.4022     0.0122     0.1313 C.ar    
  16 N16           -2.3890     1.3198     0.3320 N.ar    
  17 N17           -3.4682     2.0044     0.4491 N.ar    
  18 C18           -4.6669     1.4482     0.3771 C.ar    
  19 C19           -4.7831     0.0736     0.1674 C.ar    
  20 C20           -3.6191    -0.6635     0.0353 C.ar    
  21 N21           -5.8101     2.2333     0.5109 N.3     
  22 C22            4.0015    -1.9293    -0.0329 C.3     
  23 C23           -6.6140     1.8043     1.6752 C.3     
  24 C24            3.4379    -2.6394    -1.2762 C.3     
  25 C25            3.4003    -2.6454     1.1941 C.3     
  26 C26            2.5137    -3.7622    -0.7613 C.3     
  27 C27            2.1007    -3.2942     0.6562 C.3     
  28 O28            4.5041    -3.1977    -2.0465 O.3     
  29 C29           -6.6518     2.1511    -0.6968 C.3     
  30 C30           -8.0483     1.6710    -0.2490 C.3     
  31 C31           -8.0839     2.0532     1.2542 C.3     
  32 O32           -8.9748     1.2020     1.9779 O.3     
  33 H33            1.0847     3.1001    -0.0304 H       
  34 H34            6.4646    -0.2587    -0.0647 H       
  35 H35            6.3205     3.8910    -0.0822 H       
  36 H36            3.8598     3.8897    -0.0612 H       
  37 H37           -1.2103    -1.6559    -0.0632 H       
  38 H38           -5.7517    -0.4000     0.1055 H       
  39 H39           -3.6517    -1.7304    -0.1288 H       
  40 H40            5.0885    -2.0098    -0.0176 H       
  41 H41           -6.4518     0.7459     1.8792 H       
  42 H42           -6.3635     2.4032     2.5507 H       
  43 H43            2.8679    -1.9352    -1.8822 H       
  44 H44            4.0841    -3.4100     1.5626 H       
  45 H45            3.1705    -1.9266     1.9806 H       
  46 H46            1.6370    -3.8585    -1.4018 H       
  47 H47            3.0544    -4.7072    -0.7086 H       
  48 H48            1.8088    -4.1436     1.2737 H       
  49 H49            1.2965    -2.5604     0.6017 H       
  50 H50            4.2128    -3.6595    -2.8447 H       
  51 H51           -6.7291     3.1336    -1.1625 H       
  52 H52           -6.2224     1.4377    -1.4002 H       
  53 H53           -8.8305     2.1949    -0.7984 H       
  54 H54           -8.1438     0.5925    -0.3748 H       
  55 H55           -8.3553     3.1008     1.3844 H       
  56 H56           -9.8940     1.2522     1.6820 H       
@<TRIPOS>BOND
   1    1    2 ar
   2    1    6 ar
   3    2    3 ar
   4    2   14 1
   5    3    4 ar
   6    4    5 ar
   7    4    7 1
   8    5    6 ar
   9    5    9 1
  10    6   33 1
  11    7    8 1
  12    7   22 1
  13    8    9 ar
  14    8   10 ar
  15    9   13 ar
  16   10   11 ar
  17   10   34 1
  18   11   12 ar
  19   12   13 ar
  20   12   35 1
  21   13   36 1
  22   14   15 1
  23   14   37 1
  24   15   16 ar
  25   15   20 ar
  26   16   17 ar
  27   17   18 ar
  28   18   19 ar
  29   18   21 1
  30   19   20 ar
  31   19   38 1
  32   20   39 1
  33   21   29 1
  34   21   23 1
  35   22   24 1
  36   22   25 1
  37   22   40 1
  38   23   31 1
  39   23   41 1
  40   23   42 1
  41   24   26 1
  42   24   28 1
  43   24   43 1
  44   25   27 1
  45   25   44 1
  46   25   45 1
  47   26   27 1
  48   26   46 1
  49   26   47 1
  50   27   48 1
  51   27   49 1
  52   28   50 1
  53   29   30 1
  54   29   51 1
  55   29   52 1
  56   30   31 1
  57   30   53 1
  58   30   54 1
  59   31   32 1
  60   31   55 1
  61   32   56 1

#	End of record

