#	Name: ASD01911886
#	Creating user name:	WinNT
#	Creation time:	15. 06. 2019 19:58

#	Modifying user name:	WinNT
#	Modification time:	15. 06. 2019 19:58

#	Program:	/corina/corina34_cracker 3.40 0067  02.08.2006

@<TRIPOS>MOLECULE
ASD01911886
  36   38    0    0    0
SMALL
NO_CHARGES


@<TRIPOS>ATOM
   1 C1            -1.0609    -0.5025    -2.0833 C.ar    
   2 C2            -1.0565     0.0560    -0.8089 C.ar    
   3 C3            -1.0053     1.4362    -0.6781 C.ar    
   4 N4            -0.9612     2.2122    -1.7430 N.ar    
   5 C5            -0.9638     1.7162    -2.9645 C.ar    
   6 C6            -1.0135     0.3495    -3.1759 C.ar    
   7 O7            -1.1023    -0.7393     0.2921 O.3     
   8 C8            -1.1527    -2.0843     0.1059 C.ar    
   9 C9            -0.0022    -2.7818    -0.2365 C.ar    
  10 C10           -0.0520    -4.1495    -0.4262 C.ar    
  11 C11           -1.2465    -4.8274    -0.2764 C.ar    
  12 C12           -2.4011    -4.1348     0.0657 C.ar    
  13 C13           -2.3517    -2.7617     0.2632 C.ar    
  14 N14           -3.6103    -4.8208     0.2164 N.am    
  15 C15           -4.7723    -4.2160    -0.1006 C.2     
  16 C16           -6.0564    -4.9015     0.1561 C.ar    
  17 O17           -4.7642    -3.1066    -0.5976 O.2     
  18 C18           -7.2615    -4.2779    -0.1710 C.ar    
  19 C19           -8.4569    -4.9231     0.0706 C.ar    
  20 C20           -8.4634    -6.1856     0.6358 C.ar    
  21 C21           -7.2717    -6.8104     0.9629 C.ar    
  22 C22           -6.0689    -6.1779     0.7214 C.ar    
  23 Br23          -7.2920    -8.5361     1.7357 Br      
  24 Cl24          -1.0164    -0.2903    -4.7897 Cl      
  25 H25           -1.0957    -1.5735    -2.2179 H       
  26 H26           -1.0018     1.8798     0.3066 H       
  27 H27           -0.9267     2.3854    -3.8114 H       
  28 H28            0.9329    -2.2546    -0.3550 H       
  29 H29            0.8445    -4.6896    -0.6925 H       
  30 H30           -1.2827    -5.8964    -0.4256 H       
  31 H31           -3.2478    -2.2208     0.5295 H       
  32 H32           -3.6128    -5.7320     0.5491 H       
  33 H33           -7.2582    -3.2920    -0.6120 H       
  34 H34           -9.3899    -4.4412    -0.1818 H       
  35 H35           -9.4019    -6.6860     0.8231 H       
  36 H36           -5.1399    -6.6659     0.9768 H       
@<TRIPOS>BOND
   1    1    2 ar
   2    1    6 ar
   3    1   25 1
   4    2    3 ar
   5    2    7 1
   6    3    4 ar
   7    3   26 1
   8    4    5 ar
   9    5    6 ar
  10    5   27 1
  11    6   24 1
  12    7    8 1
  13    8    9 ar
  14    8   13 ar
  15    9   10 ar
  16    9   28 1
  17   10   11 ar
  18   10   29 1
  19   11   12 ar
  20   11   30 1
  21   12   13 ar
  22   12   14 1
  23   13   31 1
  24   14   15 am
  25   14   32 1
  26   15   16 1
  27   15   17 2
  28   16   18 ar
  29   16   22 ar
  30   18   19 ar
  31   18   33 1
  32   19   20 ar
  33   19   34 1
  34   20   21 ar
  35   20   35 1
  36   21   22 ar
  37   21   23 1
  38   22   36 1

#	End of record

