#	Name: ASD06170252
#	Creating user name:	WinNT
#	Creation time:	15. 06. 2019 21:05

#	Modifying user name:	WinNT
#	Modification time:	15. 06. 2019 21:05

#	Program:	/corina/corina34_cracker 3.40 0067  02.08.2006

@<TRIPOS>MOLECULE
ASD06170252
  72   77    0    0    0
SMALL
NO_CHARGES


@<TRIPOS>ATOM
   1 N1            -0.1803     1.7558     0.3849 N.am    
   2 N2            -0.7688     0.7469    -0.3829 N.pl3   
   3 C3             0.0741     0.3872    -1.3918 C.2     
   4 C4             1.2269     1.1647    -1.2885 C.2     
   5 C5             1.0335     2.0434    -0.1267 C.2     
   6 C6             2.4005     1.1147    -2.1652 C.2     
   7 O7             2.4339     0.3279    -3.0932 O.2     
   8 N8             3.4427     1.9401    -1.9437 N.am    
   9 C9            -2.0906     0.1640    -0.1397 C.3     
  10 C10           -0.1876    -0.6457    -2.4151 C.ar    
  11 C11            4.5303     1.9466    -2.8255 C.ar    
  12 C12            4.9214     0.7721    -3.4544 C.ar    
  13 C13            5.9952     0.7797    -4.3254 C.ar    
  14 C14            6.6817     1.9625    -4.5706 C.ar    
  15 C15            6.2904     3.1349    -3.9415 C.ar    
  16 C16            5.2144     3.1290    -3.0758 C.ar    
  17 O17            7.7379     1.9704    -5.4272 O.3     
  18 N18            6.9244     2.0851    -9.4685 N.ar    
  19 C19            8.1989     1.9488    -9.0840 C.ar    
  20 C20            8.5210     1.9050    -7.7058 C.ar    
  21 C21            7.4784     2.0077    -6.7572 C.ar    
  22 C22            6.1843     2.1471    -7.2276 C.ar    
  23 C23            5.9487     2.1808    -8.5959 C.ar    
  24 O24            1.8190     2.8725     0.2934 O.2     
  25 C25           -0.7866     2.4006     1.5523 C.3     
  26 C26           -0.9402     1.3909     2.6605 C.ar    
  27 C27           -2.0733     1.4008     3.4523 C.ar    
  28 C28            9.8578     1.7613    -7.3052 C.ar    
  29 C29           10.8391     1.6645    -8.2426 C.ar    
  30 C30           10.5324     1.7065    -9.6062 C.ar    
  31 C31            9.2310     1.8472   -10.0310 C.ar    
  32 C32           12.8605     1.4640   -10.0195 C.3     
  33 O33           11.5305     1.6078   -10.5222 O.3     
  34 C34            0.5711    -1.8216    -2.4616 C.ar    
  35 C35           -1.2053    -0.4791    -3.3623 C.ar    
  36 C36           -1.4150    -1.4706    -4.3003 C.ar    
  37 N37           -0.6736    -2.5607    -4.3109 N.ar    
  38 C38            0.2914    -2.7602    -3.4350 C.ar    
  39 C39            0.0493     0.4513     2.8816 C.ar    
  40 C40           -0.0917    -0.4748     3.8980 C.ar    
  41 C41           -1.2220    -0.4611     4.6937 C.ar    
  42 C42           -2.2143     0.4746     4.4688 C.ar    
  43 C43            0.1111     3.5453     2.0263 C.3     
  44 F44            6.3769    -0.3626    -4.9375 F       
  45 H45            3.4394     2.5295    -1.1733 H       
  46 H46           -2.8522     0.7762    -0.6227 H       
  47 H47           -2.1232    -0.8459    -0.5485 H       
  48 H48           -2.2800     0.1279     0.9331 H       
  49 H49            4.3875    -0.1470    -3.2630 H       
  50 H50            6.8247     4.0540    -4.1322 H       
  51 H51            4.9076     4.0434    -2.5898 H       
  52 H52            5.3609     2.2284    -6.5335 H       
  53 H53            4.9348     2.2899    -8.9517 H       
  54 H54           -1.7660     2.7950     1.2818 H       
  55 H55           -2.8483     2.1322     3.2769 H       
  56 H56           10.1074     1.7278    -6.2549 H       
  57 H57           11.8669     1.5542    -7.9299 H       
  58 H58            9.0045     1.8783   -11.0865 H       
  59 H59           13.5588     1.3963   -10.8536 H       
  60 H60           13.1118     2.3281    -9.4044 H       
  61 H61           12.9252     0.5579    -9.4170 H       
  62 H62            1.3631    -1.9917    -1.7473 H       
  63 H63           -1.8170     0.4110    -3.3592 H       
  64 H64           -2.1975    -1.3515    -5.0351 H       
  65 H65            0.8735    -3.6687    -3.4817 H       
  66 H66            0.9324     0.4406     2.2599 H       
  67 H67            0.6811    -1.2094     4.0703 H       
  68 H68           -1.3323    -1.1849     5.4877 H       
  69 H69           -3.0974     0.4853     5.0904 H       
  70 H70           -0.3250     4.0058     2.9128 H       
  71 H71            1.0998     3.1555     2.2684 H       
  72 H72            0.1979     4.2903     1.2353 H       
@<TRIPOS>BOND
   1    1    2 1
   2    1    5 am
   3    1   25 1
   4    2    3 1
   5    2    9 1
   6    3    4 2
   7    3   10 1
   8    4    5 1
   9    4    6 1
  10    5   24 2
  11    6    7 2
  12    6    8 am
  13    8   11 1
  14    8   45 1
  15    9   46 1
  16    9   47 1
  17    9   48 1
  18   10   34 ar
  19   10   35 ar
  20   11   12 ar
  21   11   16 ar
  22   12   13 ar
  23   12   49 1
  24   13   14 ar
  25   13   44 1
  26   14   15 ar
  27   14   17 1
  28   15   16 ar
  29   15   50 1
  30   16   51 1
  31   17   21 1
  32   18   19 ar
  33   18   23 ar
  34   19   20 ar
  35   19   31 ar
  36   20   21 ar
  37   20   28 ar
  38   21   22 ar
  39   22   23 ar
  40   22   52 1
  41   23   53 1
  42   25   26 1
  43   25   43 1
  44   25   54 1
  45   26   27 ar
  46   26   39 ar
  47   27   42 ar
  48   27   55 1
  49   28   29 ar
  50   28   56 1
  51   29   30 ar
  52   29   57 1
  53   30   31 ar
  54   30   33 1
  55   31   58 1
  56   32   33 1
  57   32   59 1
  58   32   60 1
  59   32   61 1
  60   34   38 ar
  61   34   62 1
  62   35   36 ar
  63   35   63 1
  64   36   37 ar
  65   36   64 1
  66   37   38 ar
  67   38   65 1
  68   39   40 ar
  69   39   66 1
  70   40   41 ar
  71   40   67 1
  72   41   42 ar
  73   41   68 1
  74   42   69 1
  75   43   70 1
  76   43   71 1
  77   43   72 1

#	End of record

