#	Name: ASD01148120
#	Creating user name:	WinNT
#	Creation time:	15. 06. 2019 19:02

#	Modifying user name:	WinNT
#	Modification time:	15. 06. 2019 19:02

#	Program:	/corina/corina34_cracker 3.40 0067  02.08.2006

@<TRIPOS>MOLECULE
ASD01148120
  31   31    0    0    0
SMALL
NO_CHARGES


@<TRIPOS>ATOM
   1 C1            -0.0167     1.3772     0.0096 C.ar    
   2 C2             0.0021    -0.0041     0.0020 C.ar    
   3 C3             1.1757     2.0862     0.0020 C.ar    
   4 C4             2.3848     1.4063    -0.0132 C.ar    
   5 C5             2.3994     0.0250    -0.0207 C.ar    
   6 C6             1.2091    -0.6804    -0.0127 C.ar    
   7 C7            -1.3316     2.1134     0.0199 C.3     
   8 C8            -2.1348     1.7400    -1.2276 C.3     
   9 C9            -2.1230     1.7264     1.2708 C.3     
  10 C10            3.6815     2.1741    -0.0219 C.3     
  11 C11            4.4999     1.8071     1.2176 C.3     
  12 C12            4.4756     1.8197    -1.2807 C.3     
  13 O13            1.1593     3.4453     0.0090 O.3     
  14 Cl14           1.2300    -2.4163    -0.0222 Cl      
  15 H15           -0.9260    -0.5564     0.0079 H       
  16 H16            3.3405    -0.5047    -0.0329 H       
  17 H17           -1.1466     3.1876     0.0248 H       
  18 H18           -3.0859     2.2725    -1.2202 H       
  19 H19           -1.5710     2.0157    -2.1188 H       
  20 H20           -2.3199     0.6658    -1.2326 H       
  21 H21           -1.5507     1.9924     2.1595 H       
  22 H22           -3.0741     2.2589     1.2782 H       
  23 H23           -2.3080     0.6522     1.2658 H       
  24 H24            3.4706     3.2435    -0.0145 H       
  25 H25            4.7108     0.7377     1.2101 H       
  26 H26            5.4378     2.3624     1.2112 H       
  27 H27            3.9342     2.0596     2.1144 H       
  28 H28            3.8925     2.0812    -2.1638 H       
  29 H29            5.4135     2.3750    -1.2871 H       
  30 H30            4.6865     0.7503    -1.2882 H       
  31 H31            1.1628     3.8341     0.8944 H       
@<TRIPOS>BOND
   1    1    2 ar
   2    1    3 ar
   3    1    7 1
   4    2    6 ar
   5    2   15 1
   6    3    4 ar
   7    3   13 1
   8    4    5 ar
   9    4   10 1
  10    5    6 ar
  11    5   16 1
  12    6   14 1
  13    7    8 1
  14    7    9 1
  15    7   17 1
  16    8   18 1
  17    8   19 1
  18    8   20 1
  19    9   21 1
  20    9   22 1
  21    9   23 1
  22   10   11 1
  23   10   12 1
  24   10   24 1
  25   11   25 1
  26   11   26 1
  27   11   27 1
  28   12   28 1
  29   12   29 1
  30   12   30 1
  31   13   31 1

#	End of record

