#	Name: ASD03730159
#	Creating user name:	WinNT
#	Creation time:	15. 06. 2019 20:44

#	Modifying user name:	WinNT
#	Modification time:	15. 06. 2019 20:44

#	Program:	/corina/corina34_cracker 3.40 0067  02.08.2006

@<TRIPOS>MOLECULE
ASD03730159
  50   54    0    0    0
SMALL
NO_CHARGES


@<TRIPOS>ATOM
   1 C1            -0.0184     1.5028     0.0103 C.2     
   2 C2             0.0021    -0.0041     0.0020 C.3     
   3 C3             1.4513    -0.4944    -0.0145 C.3     
   4 C4             1.4720    -2.0242    -0.0229 C.3     
   5 O5             1.0197     2.1211     0.0037 O.2     
   6 O6            -1.1898     2.1580     0.0194 O.3     
   7 O7             7.7158     0.8592     2.0728 O.3     
   8 C8             9.1363     0.8031     2.3011 C.3     
   9 O9             9.3489    -0.5268     2.8101 O.3     
  10 C10            8.3378    -1.2834     2.2903 C.ar    
  11 C11            7.3335    -0.4305     1.8380 C.ar    
  12 C12            8.1912    -2.6530     2.1635 C.ar    
  13 C13            7.0435    -3.1889     1.5873 C.ar    
  14 C14            6.0435    -2.3272     1.1467 C.ar    
  15 C15            6.1894    -0.9609     1.2661 C.ar    
  16 O16            6.7112    -4.4912     1.3547 O.3     
  17 C17            4.9373    -3.1941     0.6074 C.3     
  18 C18            5.2894    -4.5883     1.1435 C.3     
  19 N19            2.8597    -2.4937    -0.0386 N.am    
  20 C20            3.5830    -2.7413     1.0716 C.2     
  21 C21            4.8726    -3.1706    -0.8910 C.ar    
  22 C22            5.7741    -3.4728    -1.8871 C.ar    
  23 C23            5.4067    -3.3490    -3.2151 C.ar    
  24 C24            4.1323    -2.9204    -3.5397 C.ar    
  25 C25            3.2261    -2.6156    -2.5456 C.ar    
  26 C26            3.5872    -2.7377    -1.2060 C.ar    
  27 O27            3.2123    -2.6221     2.2203 O.2     
  28 C28           -1.1335     3.6089     0.0270 C.3     
  29 C29           -2.5551     4.1744     0.0369 C.3     
  30 H30           -0.4983    -0.3791     0.8948 H       
  31 H31           -0.5153    -0.3696    -0.8850 H       
  32 H32            1.9516    -0.1193    -0.9073 H       
  33 H33            1.9686    -0.1289     0.8726 H       
  34 H34            0.9717    -2.3993     0.8699 H       
  35 H35            0.9547    -2.3897    -0.9099 H       
  36 H36            9.6803     0.9474     1.3676 H       
  37 H37            9.4353     1.5478     3.0388 H       
  38 H38            8.9727    -3.3109     2.5141 H       
  39 H39            5.4090    -0.3030     0.9130 H       
  40 H40            5.0593    -5.3565     0.4052 H       
  41 H41            4.7712    -4.7844     2.0821 H       
  42 H42            6.7687    -3.8071    -1.6313 H       
  43 H43            6.1131    -3.5868    -3.9966 H       
  44 H44            3.8456    -2.8237    -4.5764 H       
  45 H45            2.2331    -2.2810    -2.8069 H       
  46 H46           -0.6017     3.9472     0.9164 H       
  47 H47           -0.6102     3.9569    -0.8636 H       
  48 H48           -2.5128     5.2636     0.0426 H       
  49 H49           -3.0869     3.8361    -0.8525 H       
  50 H50           -3.0784     3.8265     0.9275 H       
@<TRIPOS>BOND
   1    1    2 1
   2    1    5 2
   3    1    6 1
   4    2    3 1
   5    2   30 1
   6    2   31 1
   7    3    4 1
   8    3   32 1
   9    3   33 1
  10    4   19 1
  11    4   34 1
  12    4   35 1
  13    6   28 1
  14    7    8 1
  15    7   11 1
  16    8    9 1
  17    8   36 1
  18    8   37 1
  19    9   10 1
  20   10   11 ar
  21   10   12 ar
  22   11   15 ar
  23   12   13 ar
  24   12   38 1
  25   13   14 ar
  26   13   16 1
  27   14   15 ar
  28   14   17 1
  29   15   39 1
  30   16   18 1
  31   17   18 1
  32   17   20 1
  33   17   21 1
  34   18   40 1
  35   18   41 1
  36   19   20 am
  37   19   26 1
  38   20   27 2
  39   21   22 ar
  40   21   26 ar
  41   22   23 ar
  42   22   42 1
  43   23   24 ar
  44   23   43 1
  45   24   25 ar
  46   24   44 1
  47   25   26 ar
  48   25   45 1
  49   28   29 1
  50   28   46 1
  51   28   47 1
  52   29   48 1
  53   29   49 1
  54   29   50 1

#	End of record

