#	Name: ASD01209042
#	Creating user name:	WinNT
#	Creation time:	15. 06. 2019 19:10

#	Modifying user name:	WinNT
#	Modification time:	15. 06. 2019 19:10

#	Program:	/corina/corina34_cracker 3.40 0067  02.08.2006

@<TRIPOS>MOLECULE
ASD01209042
  56   60    0    0    0
SMALL
NO_CHARGES


@<TRIPOS>ATOM
   1 C1            -0.2854     1.6202     0.0980 C.3     
   2 C2            -0.1546     0.1004    -0.0416 C.3     
   3 C3             0.8204    -0.4168     1.0206 C.3     
   4 C4             2.1641     0.2992     0.8606 C.3     
   5 C5             1.1010     2.2575    -0.0263 C.3     
   6 C6            -1.5239    -0.5519     0.1596 C.3     
   7 C7            -1.4308    -2.0440    -0.1658 C.3     
   8 C8            -2.8116    -2.6476    -0.1546 C.2     
   9 N9            -3.7548    -2.1881    -1.0006 N.am    
  10 C10           -5.0293    -2.7453    -0.9903 C.2     
  11 N11           -0.5978    -2.7116     0.8376 N.pl3   
  12 N12           -6.0138    -2.3858    -1.7556 N.2     
  13 C13           -7.1560    -3.0298    -1.6048 C.2     
  14 C14           -7.1642    -3.9854    -0.6728 C.2     
  15 S15           -5.5622    -4.0565     0.0584 S.3     
  16 C16            0.4521    -3.5459     0.5676 C.ar    
  17 C17            0.9662    -3.9609     1.8111 C.ar    
  18 C18            0.1491    -3.3154     2.8323 C.2     
  19 N19           -0.7464    -2.5921     2.2228 N.2     
  20 O20           -3.0740    -3.5470     0.6156 O.2     
  21 O21            1.9665     1.7102     0.9704 O.3     
  22 F22           -8.2176    -4.7672    -0.3496 F       
  23 N23            1.0065    -3.9824    -0.5582 N.ar    
  24 C24            2.0398    -4.8052    -0.5423 C.ar    
  25 C25            2.5948    -5.2531     0.6587 C.ar    
  26 C26            2.0631    -4.8331     1.8461 C.ar    
  27 C27            3.3973    -3.8693     4.1442 C.3     
  28 C28            4.1660    -4.0215     5.4584 C.3     
  29 C29            4.9173    -3.6959     4.1659 C.3     
  30 N30            2.5854    -5.2343    -1.7450 N.pl3   
  31 S31            2.7371    -5.3766     3.3807 S.o2    
  32 O32            1.6132    -5.8528     4.1081 O.2     
  33 O33            3.7936    -6.2513     3.0093 O.2     
  34 H34           -0.9346     2.0037    -0.6891 H       
  35 H35           -0.7110     1.8612     1.0722 H       
  36 H36            0.2246    -0.1433    -1.0340 H       
  37 H37            0.4172    -0.2170     2.0134 H       
  38 H38            0.9621    -1.4900     0.8933 H       
  39 H39            2.8486    -0.0338     1.6408 H       
  40 H40            2.5860     0.0662    -0.1171 H       
  41 H41            1.5089     2.0501    -1.0156 H       
  42 H42            1.0196     3.3352     0.1149 H       
  43 H43           -1.8381    -0.4248     1.1956 H       
  44 H44           -2.2514    -0.0806    -0.5011 H       
  45 H45           -0.9855    -2.1736    -1.1522 H       
  46 H46           -3.5449    -1.4688    -1.6166 H       
  47 H47           -8.0286    -2.7981    -2.1975 H       
  48 H48            0.2682    -3.4152     3.9011 H       
  49 H49            3.4393    -5.9262     0.6493 H       
  50 H50            2.7900    -2.9732     4.0173 H       
  51 H51            4.0646    -3.2252     6.1958 H       
  52 H52            4.2750    -5.0273     5.8641 H       
  53 H53            5.5206    -4.4875     3.7214 H       
  54 H54            5.3102    -2.6855     4.0531 H       
  55 H55            2.2078    -4.9299    -2.5849 H       
  56 H56            3.3442    -5.8386    -1.7451 H       
@<TRIPOS>BOND
   1    1    2 1
   2    1    5 1
   3    1   34 1
   4    1   35 1
   5    2    3 1
   6    2    6 1
   7    2   36 1
   8    3    4 1
   9    3   37 1
  10    3   38 1
  11    4   21 1
  12    4   39 1
  13    4   40 1
  14    5   21 1
  15    5   41 1
  16    5   42 1
  17    6    7 1
  18    6   43 1
  19    6   44 1
  20    7    8 1
  21    7   11 1
  22    7   45 1
  23    8    9 am
  24    8   20 2
  25    9   10 1
  26    9   46 1
  27   10   12 2
  28   10   15 1
  29   11   16 1
  30   11   19 1
  31   12   13 1
  32   13   14 2
  33   13   47 1
  34   14   15 1
  35   14   22 1
  36   16   17 ar
  37   16   23 ar
  38   17   18 1
  39   17   26 ar
  40   18   19 2
  41   18   48 1
  42   23   24 ar
  43   24   25 ar
  44   24   30 1
  45   25   26 ar
  46   25   49 1
  47   26   31 1
  48   27   28 1
  49   27   31 1
  50   27   29 1
  51   27   50 1
  52   28   29 1
  53   28   51 1
  54   28   52 1
  55   29   53 1
  56   29   54 1
  57   30   55 1
  58   30   56 1
  59   31   32 2
  60   31   33 2

#	End of record

