#	Name: ASD01810621
#	Creating user name:	WinNT
#	Creation time:	15. 06. 2019 19:25

#	Modifying user name:	WinNT
#	Modification time:	15. 06. 2019 19:25

#	Program:	/corina/corina34_cracker 3.40 0067  02.08.2006

@<TRIPOS>MOLECULE
ASD01810621
  30   32    0    0    0
SMALL
NO_CHARGES


@<TRIPOS>ATOM
   1 N1            -0.0168     1.3874     0.0097 N.2     
   2 N2             0.0021    -0.0041     0.0020 N.am    
   3 C3             1.2653    -0.4763    -0.0126 C.2     
   4 C4             2.1532     0.7527    -0.0145 C.3     
   5 C5             1.1700     1.9045     0.0011 C.2     
   6 O6             1.6164    -1.6374    -0.0218 O.2     
   7 C7             1.5013     3.3409     0.0057 C.ar    
   8 C8             0.4806     4.2981     0.0211 C.ar    
   9 C9             0.8002     5.6423     0.0252 C.ar    
  10 C10            2.1247     6.0411     0.0137 C.ar    
  11 C11            3.1384     5.0994    -0.0016 C.ar    
  12 C12            2.8356     3.7536     0.0004 C.ar    
  13 F13           -0.8132     3.9090     0.0314 F       
  14 C14           -1.1431    -0.8101     0.0093 C.ar    
  15 C15           -2.1009    -0.6518     1.0058 C.ar    
  16 C16           -3.2302    -1.4495     1.0089 C.ar    
  17 C17           -3.4071    -2.4032     0.0229 C.ar    
  18 C18           -2.4563    -2.5625    -0.9681 C.ar    
  19 C19           -1.3280    -1.7651    -0.9809 C.ar    
  20 F20           -1.9276     0.2795     1.9691 F       
  21 H21            2.7814     0.7730     0.8761 H       
  22 H22            2.7643     0.7826    -0.9165 H       
  23 H23            0.0143     6.3830     0.0371 H       
  24 H24            2.3689     7.0932     0.0162 H       
  25 H25            4.1700     5.4190    -0.0109 H       
  26 H26            3.6287     3.0205    -0.0066 H       
  27 H27           -3.9746    -1.3281     1.7820 H       
  28 H28           -4.2900    -3.0252     0.0272 H       
  29 H29           -2.5978    -3.3088    -1.7359 H       
  30 H30           -0.5884    -1.8878    -1.7582 H       
@<TRIPOS>BOND
   1    1    2 1
   2    1    5 2
   3    2    3 am
   4    2   14 1
   5    3    4 1
   6    3    6 2
   7    4    5 1
   8    4   21 1
   9    4   22 1
  10    5    7 1
  11    7    8 ar
  12    7   12 ar
  13    8    9 ar
  14    8   13 1
  15    9   10 ar
  16    9   23 1
  17   10   11 ar
  18   10   24 1
  19   11   12 ar
  20   11   25 1
  21   12   26 1
  22   14   15 ar
  23   14   19 ar
  24   15   16 ar
  25   15   20 1
  26   16   17 ar
  27   16   27 1
  28   17   18 ar
  29   17   28 1
  30   18   19 ar
  31   18   29 1
  32   19   30 1

#	End of record

