#	Name: ASD01885062
#	Creating user name:	WinNT
#	Creation time:	15. 06. 2019 19:49

#	Modifying user name:	WinNT
#	Modification time:	15. 06. 2019 19:49

#	Program:	/corina/corina34_cracker 3.40 0067  02.08.2006

@<TRIPOS>MOLECULE
ASD01885062
  50   54    0    0    0
SMALL
NO_CHARGES


@<TRIPOS>ATOM
   1 C1             1.6258     1.4875     1.0192 C.2     
   2 C2             1.2854    -0.6496     0.0003 C.2     
   3 C3             0.6610     0.0030    -1.0851 C.2     
   4 C4             0.5376     1.3446    -1.0910 C.2     
   5 N5             1.0132     2.0907    -0.0523 N.pl3   
   6 C6             1.0321     3.4285     0.2133 C.2     
   7 N7             1.6203     3.5912     1.3690 N.2     
   8 N8             1.9705     2.4534     1.8571 N.2     
   9 C9             0.4765     4.5194    -0.6654 C.3     
  10 C10           -0.9866     4.7747    -0.2979 C.3     
  11 C11            1.7653     0.0895     1.0472 C.2     
  12 N12            1.4114    -2.0355     0.0055 N.pl3   
  13 C13            2.7362    -2.6667    -0.0683 C.3     
  14 C14            2.7445    -3.6591    -1.2358 C.3     
  15 C15            1.5813    -4.6365    -1.0786 C.3     
  16 C16            0.2513    -3.8856    -1.0837 C.3     
  17 C17            0.2226    -2.8947     0.0910 C.3     
  18 C18            1.6071    -5.6567    -2.1895 C.ar    
  19 C19            2.1472    -6.8205    -1.6637 C.ar    
  20 C20            2.4703    -6.5497    -0.2126 C.3     
  21 O21            1.7233    -5.3722     0.1470 O.3     
  22 C22            1.2165    -5.6135    -3.5121 C.ar    
  23 C23            1.3645    -6.7314    -4.3125 C.ar    
  24 C24            1.9028    -7.8919    -3.7879 C.ar    
  25 C25            2.2942    -7.9358    -2.4622 C.ar    
  26 C26            2.4354    -0.5873     2.2151 C.3     
  27 F27            3.7933    -0.7695     1.9322 F       
  28 F28            2.2998     0.2101     3.3566 F       
  29 F29            1.8351    -1.8306     2.4408 F       
  30 H30            0.2812    -0.5757    -1.9141 H       
  31 H31            0.0585     1.8341    -1.9260 H       
  32 H32            1.0527     5.4330    -0.5187 H       
  33 H33            0.5407     4.2131    -1.7095 H       
  34 H34           -1.5628     3.8612    -0.4446 H       
  35 H35           -1.0508     5.0811     0.7462 H       
  36 H36           -1.3885     5.5638    -0.9334 H       
  37 H37            3.4963    -1.9030    -0.2323 H       
  38 H38            2.9413    -3.1957     0.8624 H       
  39 H39            2.6389    -3.1162    -2.1751 H       
  40 H40            3.6849    -4.2102    -1.2378 H       
  41 H41            0.1436    -3.3432    -2.0230 H       
  42 H42           -0.5681    -4.5966    -0.9781 H       
  43 H43            0.2284    -3.4439     1.0326 H       
  44 H44           -0.6758    -2.2806     0.0292 H       
  45 H45            2.1613    -7.3934     0.4046 H       
  46 H46            3.5383    -6.3678    -0.0933 H       
  47 H47            0.7952    -4.7074    -3.9219 H       
  48 H48            1.0592    -6.6982    -5.3479 H       
  49 H49            2.0174    -8.7647    -4.4136 H       
  50 H50            2.7141    -8.8425    -2.0524 H       
@<TRIPOS>BOND
   1    1   11 1
   2    1    5 1
   3    1    8 2
   4    2    3 1
   5    2   12 1
   6    2   11 2
   7    3    4 2
   8    3   30 1
   9    4    5 1
  10    4   31 1
  11    5    6 1
  12    6    7 2
  13    6    9 1
  14    7    8 1
  15    9   10 1
  16    9   32 1
  17    9   33 1
  18   10   34 1
  19   10   35 1
  20   10   36 1
  21   11   26 1
  22   12   13 1
  23   12   17 1
  24   13   14 1
  25   13   37 1
  26   13   38 1
  27   14   15 1
  28   14   39 1
  29   14   40 1
  30   15   16 1
  31   15   18 1
  32   15   21 1
  33   16   17 1
  34   16   41 1
  35   16   42 1
  36   17   43 1
  37   17   44 1
  38   18   19 ar
  39   18   22 ar
  40   19   20 1
  41   19   25 ar
  42   20   21 1
  43   20   45 1
  44   20   46 1
  45   22   23 ar
  46   22   47 1
  47   23   24 ar
  48   23   48 1
  49   24   25 ar
  50   24   49 1
  51   25   50 1
  52   26   27 1
  53   26   28 1
  54   26   29 1

#	End of record

