#	Name: ASD01900863
#	Creating user name:	WinNT
#	Creation time:	15. 06. 2019 19:52

#	Modifying user name:	WinNT
#	Modification time:	15. 06. 2019 19:52

#	Program:	/corina/corina34_cracker 3.40 0067  02.08.2006

@<TRIPOS>MOLECULE
ASD01900863
  53   57    0    0    0
SMALL
NO_CHARGES


@<TRIPOS>ATOM
   1 S1            -0.0217     1.7523     0.0117 S.3     
   2 O2           -12.1040    -7.9219     2.8031 O.3     
   3 O3            -3.0733    -2.8695     0.0153 O.3     
   4 O4            -1.0293    -7.3333     0.4843 O.3     
   5 N5            -9.9763    -7.9764     0.9708 N.3     
   6 N6            -2.3414    -6.8768     0.2100 N.2     
   7 N7             0.5549    -2.6978    -0.0187 N.ar    
   8 C8            -9.2728    -7.6121    -0.2663 C.3     
   9 C9           -11.2396    -8.6674     0.6745 C.3     
  10 C10          -10.2141    -6.7927     1.8096 C.3     
  11 C11           -8.1017    -6.6857     0.0668 C.3     
  12 C12           -7.3690    -6.3063    -1.2217 C.3     
  13 C13          -11.9091    -9.0807     1.9879 C.3     
  14 C14          -10.8939    -7.2249     3.1116 C.3     
  15 C15           -6.2155    -5.3937    -0.8935 C.ar    
  16 C16           -4.9724    -5.9268    -0.6164 C.ar    
  17 C17           -3.9150    -5.0780    -0.3151 C.ar    
  18 C18           -6.4043    -4.0215    -0.8705 C.ar    
  19 C19           -4.1024    -3.6898    -0.2860 C.ar    
  20 C20           -5.3596    -3.1716    -0.5696 C.ar    
  21 C21           -2.5577    -5.6049    -0.0228 C.2     
  22 C22           -1.7993    -3.2981     0.0008 C.2     
  23 C23           -1.4676    -4.6114    -0.0096 C.2     
  24 C24           -0.7164    -2.2956    -0.0044 C.ar    
  25 C25           -1.0323    -0.9423     0.0069 C.ar    
  26 C26            0.0021    -0.0041     0.0020 C.ar    
  27 C27            1.3284    -0.4600    -0.0131 C.ar    
  28 C28            1.5544    -1.8532    -0.0235 C.ar    
  29 C29            2.2744     0.6399    -0.0162 C.2     
  30 C30            1.7294     1.8424    -0.0046 C.2     
  31 H31           -8.8966    -8.5139    -0.7494 H       
  32 H32           -9.9613    -7.1001    -0.9385 H       
  33 H33          -11.9004    -7.9976     0.1242 H       
  34 H34          -11.0373    -9.5544     0.0742 H       
  35 H35           -9.2632    -6.3114     2.0379 H       
  36 H36          -10.8585    -6.0930     1.2774 H       
  37 H37           -8.4778    -5.7839     0.5499 H       
  38 H38           -7.4131    -7.1977     0.7390 H       
  39 H39           -6.9928    -7.2081    -1.7047 H       
  40 H40           -8.0575    -5.7942    -1.8939 H       
  41 H41          -11.1239    -6.3445     3.7117 H       
  42 H42          -10.2272    -7.8825     3.6694 H       
  43 H43          -11.2719    -9.7922     2.5130 H       
  44 H44          -12.8733    -9.5425     1.7753 H       
  45 H45           -4.8233    -6.9963    -0.6334 H       
  46 H46           -7.3793    -3.6125    -1.0911 H       
  47 H47           -5.5193    -2.1036    -0.5550 H       
  48 H48           -0.4334    -4.9225    -0.0080 H       
  49 H49           -2.0632    -0.6207     0.0186 H       
  50 H50            2.5673    -2.2277    -0.0352 H       
  51 H51            3.3434     0.4867    -0.0269 H       
  52 H52            2.2910     2.7649    -0.0053 H       
  53 H53           -0.9692    -8.2853     0.6428 H       
@<TRIPOS>BOND
   1    1   26 1
   2    1   30 1
   3    2   13 1
   4    2   14 1
   5    3   19 1
   6    3   22 1
   7    4    6 1
   8    4   53 1
   9    5    8 1
  10    5    9 1
  11    5   10 1
  12    6   21 2
  13    7   24 ar
  14    7   28 ar
  15    8   11 1
  16    8   31 1
  17    8   32 1
  18    9   13 1
  19    9   33 1
  20    9   34 1
  21   10   14 1
  22   10   35 1
  23   10   36 1
  24   11   12 1
  25   11   37 1
  26   11   38 1
  27   12   15 1
  28   12   39 1
  29   12   40 1
  30   13   43 1
  31   13   44 1
  32   14   41 1
  33   14   42 1
  34   15   16 ar
  35   15   18 ar
  36   16   17 ar
  37   16   45 1
  38   17   19 ar
  39   17   21 1
  40   18   20 ar
  41   18   46 1
  42   19   20 ar
  43   20   47 1
  44   21   23 1
  45   22   23 2
  46   22   24 1
  47   23   48 1
  48   24   25 ar
  49   25   26 ar
  50   25   49 1
  51   26   27 ar
  52   27   28 ar
  53   27   29 1
  54   28   50 1
  55   29   30 2
  56   29   51 1
  57   30   52 1

#	End of record

