#	Name: ASD02500544
#	Creating user name:	WinNT
#	Creation time:	15. 06. 2019 20:23

#	Modifying user name:	WinNT
#	Modification time:	15. 06. 2019 20:23

#	Program:	/corina/corina34_cracker 3.40 0067  02.08.2006

@<TRIPOS>MOLECULE
ASD02500544
  61   64    0    0    0
SMALL
NO_CHARGES


@<TRIPOS>ATOM
   1 Na1            0.0000     0.0000     0.0000 Du      
   2 S2             6.3746    12.5829    10.4386 S.o2    
   3 O3             5.7990    13.6415    11.1917 O.2     
   4 O4             5.9915    11.2230    10.5908 O.2     
   5 N5             6.9408    15.2016     9.0800 N.ar    
   6 C6             7.2414    16.3993     8.6403 C.ar    
   7 C7             7.0561    16.7589     7.3070 C.ar    
   8 C8             6.5492    15.8519     6.4206 C.ar    
   9 C9             6.2280    14.5664     6.8962 C.ar    
  10 C10            5.7025    13.5819     6.0445 C.ar    
  11 C11            5.4042    12.3503     6.5430 C.ar    
  12 C12            5.6142    12.0535     7.8879 C.ar    
  13 C13            6.1211    12.9843     8.7418 C.ar    
  14 C14            6.4412    14.2672     8.2649 C.ar    
  15 N15            8.0057    12.6433    10.7182 N.pl3   
  16 C16            8.5044    12.3678    11.9866 C.ar    
  17 C17            9.8759    12.4190    12.2200 C.ar    
  18 C18           10.3724    12.1469    13.4742 C.ar    
  19 C19            9.4981    11.8188    14.5145 C.ar    
  20 C20            8.1214    11.7682    14.2769 C.ar    
  21 C21            7.6306    12.0469    13.0219 C.ar    
  22 C22           10.0271    11.5261    15.8601 C.2     
  23 O23            9.4373    11.9257    16.8455 O.2     
  24 N24           11.1642    10.8157    15.9973 N.am    
  25 C25           11.7752    10.6170    17.3203 C.3     
  26 C26           12.0392     9.1200    17.5147 C.3     
  27 N27           12.8285     8.6143    16.3837 N.3     
  28 C28           12.0889     8.7373    15.1205 C.3     
  29 C29           11.8237    10.2134    14.8287 C.3     
  30 C30           13.2492     7.2259    16.6144 C.3     
  31 C31           13.8380     6.6622    15.3468 C.ar    
  32 C32           15.1920     6.7875    15.0983 C.ar    
  33 C33           15.7321     6.2705    13.9356 C.ar    
  34 C34           14.9182     5.6278    13.0216 C.ar    
  35 C35           13.5643     5.5018    13.2705 C.ar    
  36 C36           13.0250     6.0150    14.4353 C.ar    
  37 H37            7.6431    17.1269     9.3300 H       
  38 H38            7.3127    17.7540     6.9748 H       
  39 H39            6.3987    16.1137     5.3836 H       
  40 H40            5.5356    13.8000     5.0000 H       
  41 H41            5.0000    11.5935     5.8871 H       
  42 H42            5.3688    11.0695     8.2594 H       
  43 H43           10.5509    12.6722    11.4159 H       
  44 H44           11.4365    12.1865    13.6546 H       
  45 H45            7.4434    11.5147    15.0784 H       
  46 H46            6.5668    12.0127    12.8388 H       
  47 H47           12.7159    11.1648    17.3752 H       
  48 H48           11.0955    10.9725    18.0947 H       
  49 H49           12.5915     8.9655    18.4417 H       
  50 H50           11.0899     8.5866    17.5632 H       
  51 H51           12.6773     8.3052    14.3110 H       
  52 H52           11.1390     8.2092    15.2022 H       
  53 H53           11.1760    10.3023    13.9565 H       
  54 H54           12.7692    10.7217    14.6394 H       
  55 H55           13.9983     7.1999    17.4058 H       
  56 H56           12.3865     6.6293    16.9109 H       
  57 H57           15.8279     7.2896    15.8124 H       
  58 H58           16.7899     6.3690    13.7411 H       
  59 H59           15.3400     5.2245    12.1128 H       
  60 H60           12.9283     5.0000    12.5563 H       
  61 H61           11.9678     5.9133    14.6315 H       
@<TRIPOS>BOND
   1    2    3 2
   2    2    4 2
   3    2   13 1
   4    2   15 1
   5    5    6 ar
   6    5   14 ar
   7    6    7 ar
   8    6   37 1
   9    7    8 ar
  10    7   38 1
  11    8    9 ar
  12    8   39 1
  13    9   10 ar
  14    9   14 ar
  15   10   11 ar
  16   10   40 1
  17   11   12 ar
  18   11   41 1
  19   12   13 ar
  20   12   42 1
  21   13   14 ar
  22   15   16 1
  23   16   17 ar
  24   16   21 ar
  25   17   18 ar
  26   17   43 1
  27   18   19 ar
  28   18   44 1
  29   19   20 ar
  30   19   22 1
  31   20   21 ar
  32   20   45 1
  33   21   46 1
  34   22   23 2
  35   22   24 am
  36   24   25 1
  37   24   29 1
  38   25   26 1
  39   25   47 1
  40   25   48 1
  41   26   27 1
  42   26   49 1
  43   26   50 1
  44   27   28 1
  45   27   30 1
  46   28   29 1
  47   28   51 1
  48   28   52 1
  49   29   53 1
  50   29   54 1
  51   30   31 1
  52   30   55 1
  53   30   56 1
  54   31   32 ar
  55   31   36 ar
  56   32   33 ar
  57   32   57 1
  58   33   34 ar
  59   33   58 1
  60   34   35 ar
  61   34   59 1
  62   35   36 ar
  63   35   60 1
  64   36   61 1

#	End of record

