#	Name: ASD01910327
#	Creating user name:	WinNT
#	Creation time:	15. 06. 2019 19:55

#	Modifying user name:	WinNT
#	Modification time:	15. 06. 2019 19:55

#	Program:	/corina/corina34_cracker 3.40 0067  02.08.2006

@<TRIPOS>MOLECULE
ASD01910327
  42   44    0    0    0
SMALL
NO_CHARGES


@<TRIPOS>ATOM
   1 C1             0.0159     1.3561    -0.6965 C.ar    
   2 C2            -0.0415     0.0716    -0.1806 C.ar    
   3 C3             1.0944    -0.5207     0.3508 C.ar    
   4 C4             2.2897     0.1649     0.3690 C.ar    
   5 C5             2.3570     1.4614    -0.1500 C.ar    
   6 C6             1.2073     2.0549    -0.6849 C.ar    
   7 C7             3.5960     2.1793    -0.1337 C.1     
   8 C8             4.6117     2.7678    -0.1203 C.1     
   9 C9             5.8507     3.4857    -0.1040 C.ar    
  10 C10            5.9149     4.7834    -0.6242 C.ar    
  11 C11            7.0965     5.4675    -0.6079 C.ar    
  12 C12            8.2423     4.8718    -0.0716 C.ar    
  13 C13            8.1790     3.5752     0.4479 C.ar    
  14 C14            6.9967     2.8921     0.4375 C.ar    
  15 C15            9.5191     5.6119    -0.0543 C.2     
  16 O16           10.5285     5.0930    -0.4904 O.2     
  17 N17            9.5662     6.8629     0.4449 N.am    
  18 C18           10.8439     7.5812     0.5453 C.3     
  19 C19           11.0239     8.0681     1.9866 C.3     
  20 C20            9.8038     8.8955     2.3975 C.3     
  21 C21            8.5487     8.0219     2.3359 C.3     
  22 C22            8.3399     7.5366     0.8934 C.3     
  23 O23            9.9829     9.3783     3.7305 O.3     
  24 F24           -1.2096    -0.6070    -0.1947 F       
  25 F25            1.2632     3.3071    -1.1889 F       
  26 H26           -0.8713     1.8100    -1.1126 H       
  27 H27            1.0419    -1.5221     0.7519 H       
  28 H28            3.1728    -0.2984     0.7836 H       
  29 H29            5.0301     5.2435    -1.0388 H       
  30 H30            7.1462     6.4688    -1.0096 H       
  31 H31            9.0645     3.1155     0.8614 H       
  32 H32            6.9479     1.8907     0.8392 H       
  33 H33           11.6618     6.9108     0.2813 H       
  34 H34           10.8367     8.4361    -0.1309 H       
  35 H35           11.1218     7.2096     2.6511 H       
  36 H36           11.9205     8.6844     2.0532 H       
  37 H37            9.6921     9.7401     1.7175 H       
  38 H38            8.6699     7.1638     2.9971 H       
  39 H39            7.6836     8.6053     2.6511 H       
  40 H40            8.1281     8.3891     0.2481 H       
  41 H41            7.5063     6.8351     0.8609 H       
  42 H42            9.2461     9.9122     4.0577 H       
@<TRIPOS>BOND
   1    1    2 ar
   2    1    6 ar
   3    1   26 1
   4    2    3 ar
   5    2   24 1
   6    3    4 ar
   7    3   27 1
   8    4    5 ar
   9    4   28 1
  10    5    6 ar
  11    5    7 1
  12    6   25 1
  13    7    8 3
  14    8    9 1
  15    9   10 ar
  16    9   14 ar
  17   10   11 ar
  18   10   29 1
  19   11   12 ar
  20   11   30 1
  21   12   13 ar
  22   12   15 1
  23   13   14 ar
  24   13   31 1
  25   14   32 1
  26   15   16 2
  27   15   17 am
  28   17   18 1
  29   17   22 1
  30   18   19 1
  31   18   33 1
  32   18   34 1
  33   19   20 1
  34   19   35 1
  35   19   36 1
  36   20   21 1
  37   20   23 1
  38   20   37 1
  39   21   22 1
  40   21   38 1
  41   21   39 1
  42   22   40 1
  43   22   41 1
  44   23   42 1

#	End of record

