#	Name: ASD09116319
#	Creating user name:	WinNT
#	Creation time:	15. 06. 2019 21:21

#	Modifying user name:	WinNT
#	Modification time:	15. 06. 2019 21:21

#	Program:	/corina/corina34_cracker 3.40 0067  02.08.2006

@<TRIPOS>MOLECULE
ASD09116319
  66   71    0    0    0
SMALL
NO_CHARGES


@<TRIPOS>ATOM
   1 N1            -0.0296     1.4182     0.1448 N.2     
   2 N2            -0.0208     0.0192     0.2656 N.pl3   
   3 C3             1.2224     1.8077     0.1155 C.2     
   4 N4             2.0155     0.7341     0.2110 N.2     
   5 C5             1.2800    -0.3532     0.3023 C.2     
   6 N6             1.7523    -1.6471     0.4153 N.pl3   
   7 C7            -1.1338    -0.8214     0.3343 C.ar    
   8 N8             1.6573     3.1283     0.0030 N.pl3   
   9 C9             3.0223     3.4264     0.0973 C.ar    
  10 C10            3.5421     4.5220    -0.5796 C.ar    
  11 C11            3.8551     2.6298     0.8722 C.ar    
  12 C12            5.2010     2.9237     0.9651 C.ar    
  13 C13            5.7219     4.0159     0.2837 C.ar    
  14 C14            4.8880     4.8159    -0.4866 C.ar    
  15 N15           -1.0320    -2.0870    -0.0421 N.ar    
  16 N16           -2.0266    -2.9013    -0.0076 N.ar    
  17 C17           -3.2218    -2.5178     0.4092 C.ar    
  18 C18           -3.4185    -1.2005     0.8444 C.ar    
  19 C19           -2.3540    -0.3285     0.8058 C.ar    
  20 C20           -4.3864    -3.4295     0.4110 C.ar    
  21 C21           -5.5953    -2.9866    -0.1505 C.ar    
  22 N22           -5.6512    -1.7314    -0.7461 N.3     
  23 C23           -5.7533    -0.6297     0.2094 C.3     
  24 C24           -4.7692    -0.7934     1.3627 C.3     
  25 C25           -4.3041    -4.7035     0.9594 C.ar    
  26 C26           -5.4181    -5.5203     0.9682 C.ar    
  27 C27           -6.6152    -5.0742     0.4361 C.ar    
  28 C28           -6.7071    -3.8128    -0.1214 C.ar    
  29 N29            7.0863     4.3139     0.3779 N.3     
  30 C30            7.4217     5.5033    -0.4173 C.3     
  31 C31            8.9019     5.8416    -0.2249 C.3     
  32 N32            9.7214     4.6915    -0.6315 N.3     
  33 C33            9.3860     3.5020     0.1637 C.3     
  34 C34            7.9058     3.1638    -0.0287 C.3     
  35 C35           11.1533     5.0042    -0.5326 C.3     
  36 C36           -6.7310    -1.6679    -1.7401 C.3     
  37 H37            2.7076    -1.8149     0.4324 H       
  38 H38            1.1286    -2.3874     0.4774 H       
  39 H39            1.0142     3.8401    -0.1405 H       
  40 H40            2.8937     5.1439    -1.1789 H       
  41 H41            3.4500     1.7806     1.4025 H       
  42 H42            5.8486     2.3044     1.5680 H       
  43 H43            5.2931     5.6652    -1.0166 H       
  44 H44           -2.4597     0.6994     1.1200 H       
  45 H45           -5.5454     0.3082    -0.3055 H       
  46 H46           -6.7671    -0.5978     0.6086 H       
  47 H47           -5.1385    -1.5579     2.0462 H       
  48 H48           -4.6801     0.1521     1.8977 H       
  49 H49           -3.3719    -5.0543     1.3772 H       
  50 H50           -5.3545    -6.5116     1.3921 H       
  51 H51           -7.4835    -5.7162     0.4564 H       
  52 H52           -7.6450    -3.4714    -0.5340 H       
  53 H53            7.2286     5.3025    -1.4711 H       
  54 H54            6.8108     6.3443    -0.0891 H       
  55 H55            9.1598     6.7062    -0.8364 H       
  56 H56            9.0895     6.0689     0.8245 H       
  57 H57            9.9968     2.6611    -0.1644 H       
  58 H58            9.5791     3.7028     1.2175 H       
  59 H59            7.6478     2.2991     0.5828 H       
  60 H60            7.7182     2.9364    -1.0781 H       
  61 H61           11.3988     5.2614     0.4978 H       
  62 H62           11.7368     4.1361    -0.8393 H       
  63 H63           11.3869     5.8471    -1.1830 H       
  64 H64           -7.6761    -1.9351    -1.2675 H       
  65 H65           -6.7979    -0.6560    -2.1398 H       
  66 H66           -6.5201    -2.3655    -2.5507 H       
@<TRIPOS>BOND
   1    1    2 1
   2    1    3 2
   3    2    7 1
   4    2    5 1
   5    3    4 1
   6    3    8 1
   7    4    5 2
   8    5    6 1
   9    6   37 1
  10    6   38 1
  11    7   15 ar
  12    7   19 ar
  13    8    9 1
  14    8   39 1
  15    9   10 ar
  16    9   11 ar
  17   10   14 ar
  18   10   40 1
  19   11   12 ar
  20   11   41 1
  21   12   13 ar
  22   12   42 1
  23   13   14 ar
  24   13   29 1
  25   14   43 1
  26   15   16 ar
  27   16   17 ar
  28   17   18 ar
  29   17   20 1
  30   18   19 ar
  31   18   24 1
  32   19   44 1
  33   20   21 ar
  34   20   25 ar
  35   21   22 1
  36   21   28 ar
  37   22   23 1
  38   22   36 1
  39   23   24 1
  40   23   45 1
  41   23   46 1
  42   24   47 1
  43   24   48 1
  44   25   26 ar
  45   25   49 1
  46   26   27 ar
  47   26   50 1
  48   27   28 ar
  49   27   51 1
  50   28   52 1
  51   29   30 1
  52   29   34 1
  53   30   31 1
  54   30   53 1
  55   30   54 1
  56   31   32 1
  57   31   55 1
  58   31   56 1
  59   32   33 1
  60   32   35 1
  61   33   34 1
  62   33   57 1
  63   33   58 1
  64   34   59 1
  65   34   60 1
  66   35   61 1
  67   35   62 1
  68   35   63 1
  69   36   64 1
  70   36   65 1
  71   36   66 1

#	End of record

