#	Name: ASD01914335
#	Creating user name:	WinNT
#	Creation time:	15. 06. 2019 20:03

#	Modifying user name:	WinNT
#	Modification time:	15. 06. 2019 20:03

#	Program:	/corina/corina34_cracker 3.40 0067  02.08.2006

@<TRIPOS>MOLECULE
ASD01914335
  44   47    0    0    0
SMALL
NO_CHARGES


@<TRIPOS>ATOM
   1 C1            -0.0881     1.4818     0.3479 C.2     
   2 N2            -0.0321     0.1684     0.0571 N.2     
   3 C3            -1.2321    -0.3092     0.0038 C.2     
   4 N4            -2.1172     0.7040     0.2740 N.am    
   5 C5            -1.3828     1.8314     0.4898 C.2     
   6 C6            -3.4473     0.5026     0.3078 C.2     
   7 N7            -3.9114    -0.7622     0.2562 N.am    
   8 C8            -5.2812    -0.9679     0.0502 C.ar    
   9 C9             1.0952     2.4031     0.4961 C.3     
  10 O10            1.4089     2.9834    -0.7715 O.3     
  11 C11            2.4588     3.8453    -0.8127 C.ar    
  12 C12            2.8187     4.4451    -2.0108 C.ar    
  13 C13            3.8864     5.3208    -2.0501 C.ar    
  14 C14            4.5961     5.5997    -0.8967 C.ar    
  15 C15            4.2397     5.0028     0.2985 C.ar    
  16 C16            3.1689     4.1311     0.3443 C.ar    
  17 C17           -1.7000    -1.7121    -0.3008 C.3     
  18 C18           -3.0428    -1.9258     0.4061 C.3     
  19 O19           -4.2145     1.4416     0.3837 O.2     
  20 C20           -5.8598    -0.6296    -1.1658 C.ar    
  21 C21           -7.2109    -0.8336    -1.3671 C.ar    
  22 C22           -7.9884    -1.3748    -0.3571 C.ar    
  23 C23           -7.4133    -1.7129     0.8563 C.ar    
  24 C24           -6.0614    -1.5157     1.0596 C.ar    
  25 F25           -9.3100    -1.5728    -0.5557 F       
  26 C26           -1.9144     3.2034     0.8154 C.3     
  27 H27            0.8539     3.1930     1.2075 H       
  28 H28            1.9532     1.8371     0.8589 H       
  29 H29            2.2649     4.2273    -2.9120 H       
  30 H30            4.1672     5.7878    -2.9825 H       
  31 H31            5.4305     6.2846    -0.9294 H       
  32 H32            4.7960     5.2217     1.1979 H       
  33 H33            2.8909     3.6652     1.2781 H       
  34 H34           -1.8268    -1.8330    -1.3766 H       
  35 H35           -0.9701    -2.4325     0.0684 H       
  36 H36           -2.8638    -2.1029     1.4666 H       
  37 H37           -3.5368    -2.7980    -0.0220 H       
  38 H38           -5.2539    -0.2068    -1.9535 H       
  39 H39           -7.6613    -0.5706    -2.3128 H       
  40 H40           -8.0214    -2.1349     1.6428 H       
  41 H41           -5.6132    -1.7799     2.0061 H       
  42 H42           -1.9983     3.3134     1.8965 H       
  43 H43           -1.2328     3.9592     0.4251 H       
  44 H44           -2.8966     3.3300     0.3600 H       
@<TRIPOS>BOND
   1    1    2 1
   2    1    9 1
   3    1    5 2
   4    2    3 2
   5    3    4 1
   6    3   17 1
   7    4    5 1
   8    4    6 am
   9    5   26 1
  10    6    7 am
  11    6   19 2
  12    7    8 1
  13    7   18 1
  14    8   20 ar
  15    8   24 ar
  16    9   10 1
  17    9   27 1
  18    9   28 1
  19   10   11 1
  20   11   12 ar
  21   11   16 ar
  22   12   13 ar
  23   12   29 1
  24   13   14 ar
  25   13   30 1
  26   14   15 ar
  27   14   31 1
  28   15   16 ar
  29   15   32 1
  30   16   33 1
  31   17   18 1
  32   17   34 1
  33   17   35 1
  34   18   36 1
  35   18   37 1
  36   20   21 ar
  37   20   38 1
  38   21   22 ar
  39   21   39 1
  40   22   23 ar
  41   22   25 1
  42   23   24 ar
  43   23   40 1
  44   24   41 1
  45   26   42 1
  46   26   43 1
  47   26   44 1

#	End of record

