#	Name: ASD01880541
#	Creating user name:	WinNT
#	Creation time:	15. 06. 2019 19:40

#	Modifying user name:	WinNT
#	Modification time:	15. 06. 2019 19:40

#	Program:	/corina/corina34_cracker 3.40 0067  02.08.2006

@<TRIPOS>MOLECULE
ASD01880541
  49   52    0    0    0
SMALL
NO_CHARGES


@<TRIPOS>ATOM
   1 N1             0.0644     1.3752    -0.6399 N.ar    
   2 C2             0.1102     0.0793    -0.8733 C.ar    
   3 N3             1.2171    -0.6174    -0.7115 N.ar    
   4 C4             2.3362    -0.0345    -0.3040 C.ar    
   5 C5             2.3330     1.3258    -0.0471 C.ar    
   6 C6             1.1452     2.0302    -0.2289 C.ar    
   7 C7             3.5832     2.0269     0.4181 C.3     
   8 O8             4.3189     2.4912    -0.7156 O.3     
   9 C9             5.4800     3.1492    -0.4693 C.ar    
  10 C10            6.2457     3.6280    -1.5279 C.ar    
  11 C11            7.4197     4.2938    -1.2774 C.ar    
  12 C12            7.8528     4.4948     0.0375 C.ar    
  13 C13            7.0797     4.0122     1.0971 C.ar    
  14 C14            5.9003     3.3492     0.8402 C.ar    
  15 C15            8.4600     4.9244    -2.1693 C.3     
  16 N16            9.4831     5.4799    -1.2761 N.am    
  17 C17            9.1288     5.2298    -0.0040 C.2     
  18 O18            9.7701     5.5633     0.9737 O.2     
  19 Cl19           3.7866    -0.9653    -0.0948 Cl      
  20 O20            1.0925     3.3633     0.0092 O.3     
  21 C21           -0.1151     3.9802    -0.0805 C.ar    
  22 C22           -1.0463     3.8363     0.9379 C.ar    
  23 C23           -2.2731     4.4645     0.8443 C.ar    
  24 C24           -2.5735     5.2357    -0.2634 C.ar    
  25 C25           -1.6473     5.3803    -1.2798 C.ar    
  26 C26           -0.4166     4.7597    -1.1880 C.ar    
  27 C27           11.6572     8.4287    -2.2477 C.3     
  28 C28           10.3946     7.6872    -1.8039 C.3     
  29 C29           10.6920     6.1899    -1.7011 C.3     
  30 H30           -0.7844    -0.4261    -1.2061 H       
  31 H31            3.3117     2.8747     1.0471 H       
  32 H32            4.1979     1.3321     0.9904 H       
  33 H33            5.9169     3.4757    -2.5453 H       
  34 H34            7.4053     4.1617     2.1159 H       
  35 H35            5.3032     2.9769     1.6595 H       
  36 H36            8.9012     4.1705    -2.8214 H       
  37 H37            8.0109     5.7192    -2.7649 H       
  38 H38           -0.8124     3.2335     1.8029 H       
  39 H39           -2.9983     4.3528     1.6367 H       
  40 H40           -3.5333     5.7257    -0.3349 H       
  41 H41           -1.8847     5.9827    -2.1443 H       
  42 H42            0.3064     4.8729    -1.9822 H       
  43 H43           11.4453     9.4954    -2.3209 H       
  44 H44           12.4501     8.2650    -1.5180 H       
  45 H45           11.9756     8.0539    -3.2205 H       
  46 H46           10.0761     8.0620    -0.8312 H       
  47 H47            9.6016     7.8509    -2.5337 H       
  48 H48           11.4850     6.0262    -0.9714 H       
  49 H49           11.0105     5.8151    -2.6739 H       
@<TRIPOS>BOND
   1    1    2 ar
   2    1    6 ar
   3    2    3 ar
   4    2   30 1
   5    3    4 ar
   6    4    5 ar
   7    4   19 1
   8    5    6 ar
   9    5    7 1
  10    6   20 1
  11    7    8 1
  12    7   31 1
  13    7   32 1
  14    8    9 1
  15    9   10 ar
  16    9   14 ar
  17   10   11 ar
  18   10   33 1
  19   11   12 ar
  20   11   15 1
  21   12   13 ar
  22   12   17 1
  23   13   14 ar
  24   13   34 1
  25   14   35 1
  26   15   16 1
  27   15   36 1
  28   15   37 1
  29   16   17 am
  30   16   29 1
  31   17   18 2
  32   20   21 1
  33   21   22 ar
  34   21   26 ar
  35   22   23 ar
  36   22   38 1
  37   23   24 ar
  38   23   39 1
  39   24   25 ar
  40   24   40 1
  41   25   26 ar
  42   25   41 1
  43   26   42 1
  44   27   28 1
  45   27   43 1
  46   27   44 1
  47   27   45 1
  48   28   29 1
  49   28   46 1
  50   28   47 1
  51   29   48 1
  52   29   49 1

#	End of record

