#	Name: ASD03180070
#	Creating user name:	WinNT
#	Creation time:	15. 06. 2019 20:33

#	Modifying user name:	WinNT
#	Modification time:	15. 06. 2019 20:33

#	Program:	/corina/corina34_cracker 3.40 0067  02.08.2006

@<TRIPOS>MOLECULE
ASD03180070
  38   40    0    0    0
SMALL
NO_CHARGES


@<TRIPOS>ATOM
   1 C1             0.4097     1.0308    -1.5118 C.ar    
   2 C2             0.0913    -0.0488    -0.6816 C.ar    
   3 C3             0.9475    -0.3958     0.3684 C.ar    
   4 C4             2.0919     0.3183     0.5821 C.ar    
   5 C5             2.4109     1.3937    -0.2428 C.ar    
   6 C6             1.5647     1.7462    -1.2909 C.ar    
   7 N7             3.5777     2.1177    -0.0193 N.pl3   
   8 N8             4.6087     4.2666    -0.0396 N.2     
   9 C9             4.4033     5.5780    -0.1558 C.2     
  10 C10            3.5646     3.5007    -0.1160 C.2     
  11 S11            2.1282     4.4889    -0.3625 S.3     
  12 C12            3.1213     5.9441    -0.3401 C.2     
  13 C13            5.5059     6.5616    -0.0867 C.2     
  14 S14            5.3470     8.3109    -0.2262 S.3     
  15 C15            7.0356     8.4901    -0.0288 C.2     
  16 N16            7.5957     7.3370     0.1196 N.2     
  17 C17            6.8131     6.2796     0.1004 C.2     
  18 C18            7.7666     9.8079    -0.0291 C.3     
  19 C19            7.3313     4.8745     0.2688 C.3     
  20 C20           -1.1442    -0.8187    -0.9124 C.2     
  21 C21            3.0121    -0.0586     1.7145 C.3     
  22 O22           -1.4195    -1.7564    -0.1902 O.2     
  23 O23           -1.9684    -0.4828    -1.9243 O.3     
  24 H24           -0.2464     1.2995    -2.3265 H       
  25 H25            0.7033    -1.2288     1.0109 H       
  26 H26            1.8143     2.5802    -1.9299 H       
  27 H27            4.4003     1.6549     0.2041 H       
  28 H28            2.7627     6.9565    -0.4543 H       
  29 H29            7.8165    10.1959     0.9883 H       
  30 H30            8.7766     9.6630    -0.4126 H       
  31 H31            7.2356    10.5179    -0.6631 H       
  32 H32            7.5858     4.4617    -0.7074 H       
  33 H33            8.2197     4.8882     0.9003 H       
  34 H34            6.5634     4.2575     0.7352 H       
  35 H35            3.7461    -0.7826     1.3607 H       
  36 H36            3.5257     0.8318     2.0771 H       
  37 H37            2.4301    -0.4976     2.5248 H       
  38 H38           -2.7665    -1.0171    -2.0362 H       
@<TRIPOS>BOND
   1    1    2 ar
   2    1    6 ar
   3    1   24 1
   4    2    3 ar
   5    2   20 1
   6    3    4 ar
   7    3   25 1
   8    4    5 ar
   9    4   21 1
  10    5    6 ar
  11    5    7 1
  12    6   26 1
  13    7   10 1
  14    7   27 1
  15    8   10 2
  16    8    9 1
  17    9   12 2
  18    9   13 1
  19   10   11 1
  20   11   12 1
  21   12   28 1
  22   13   14 1
  23   13   17 2
  24   14   15 1
  25   15   16 2
  26   15   18 1
  27   16   17 1
  28   17   19 1
  29   18   29 1
  30   18   30 1
  31   18   31 1
  32   19   32 1
  33   19   33 1
  34   19   34 1
  35   20   22 2
  36   20   23 1
  37   21   35 1
  38   21   36 1
  39   21   37 1
  40   23   38 1

#	End of record

