#	Name: ASD00170043
#	Creating user name:	WinNT
#	Creation time:	15. 06. 2019 18:31

#	Modifying user name:	WinNT
#	Modification time:	15. 06. 2019 18:31

#	Program:	/corina/corina34_cracker 3.40 0067  02.08.2006

@<TRIPOS>MOLECULE
ASD00170043
  28   29    0    0    0
SMALL
NO_CHARGES


@<TRIPOS>ATOM
   1 C1             3.3331     1.4449    -3.6810 C.ar    
   2 C2             3.3713     0.0603    -3.6905 C.ar    
   3 C3             3.5101    -0.6424    -2.5049 C.ar    
   4 C4             3.6106     0.0336    -1.3073 C.ar    
   5 C5             3.5727     1.4292    -1.2913 C.ar    
   6 C6             3.4331     2.1320    -2.4896 C.ar    
   7 Cl7            3.2442    -0.7978    -5.1943 Cl      
   8 C8             6.3113     3.6393    -0.1565 C.3     
   9 C9             4.9696     4.3203    -0.0729 C.2     
  10 C10            3.7612     3.6215    -0.0062 C.2     
  11 C11            3.6794     2.1599    -0.0104 C.2     
  12 O12            3.6994     1.5460     1.0410 O.2     
  13 C13            4.8242     5.6547    -0.0499 C.2     
  14 S14            3.1230     6.0791     0.0512 S.3     
  15 C15            2.6531     4.4394     0.0645 C.2     
  16 N16            1.3509     3.9951     0.1353 N.pl3   
  17 C17            5.9015     6.5967    -0.0998 C.1     
  18 C18            6.7848     7.3690    -0.1407 C.1     
  19 *19            7.9585     8.3952    -0.1950 Du      
  20 H20            3.2293     1.9876    -4.6090 H       
  21 H21            3.5392    -1.7219    -2.5185 H       
  22 H22            3.7180    -0.5154    -0.3834 H       
  23 H23            3.4035     3.2116    -2.4835 H       
  24 H24            6.5743     3.4818    -1.2025 H       
  25 H25            7.0668     4.2657     0.3178 H       
  26 H26            6.2633     2.6779     0.3548 H       
  27 H27            0.6279     4.6298     0.2587 H       
  28 H28            1.1571     3.0475     0.0618 H       
@<TRIPOS>BOND
   1    1    2 ar
   2    1    6 ar
   3    1   20 1
   4    2    3 ar
   5    2    7 1
   6    3    4 ar
   7    3   21 1
   8    4    5 ar
   9    4   22 1
  10    5    6 ar
  11    5   11 1
  12    6   23 1
  13    8    9 1
  14    8   24 1
  15    8   25 1
  16    8   26 1
  17    9   10 1
  18    9   13 2
  19   10   11 1
  20   10   15 2
  21   11   12 2
  22   13   14 1
  23   13   17 1
  24   14   15 1
  25   15   16 1
  26   16   27 1
  27   16   28 1
  28   17   18 3
  29   18   19 1

#	End of record

