#	Name: ASD04882294
#	Creating user name:	WinNT
#	Creation time:	15. 06. 2019 20:54

#	Modifying user name:	WinNT
#	Modification time:	15. 06. 2019 20:54

#	Program:	/corina/corina34_cracker 3.40 0067  02.08.2006

@<TRIPOS>MOLECULE
ASD04882294
  79   84    0    0    0
SMALL
NO_CHARGES


@<TRIPOS>ATOM
   1 N1            -0.0169     1.3970     0.0097 N.am    
   2 C2             0.1091     0.0021    -0.0337 C.ar    
   3 C3            -1.0285    -0.8057     0.0463 C.ar    
   4 C4            -0.9050    -2.1898     0.0034 C.ar    
   5 C5             0.3382    -2.7698    -0.1177 C.ar    
   6 C6             1.4801    -1.9677    -0.1978 C.ar    
   7 C7             1.3580    -0.5758    -0.1615 C.ar    
   8 N8            -2.2875    -0.2235     0.1697 N.3     
   9 C9            -3.1537    -0.5984    -0.9567 C.3     
  10 C10           -2.9103    -0.5823     1.4515 C.3     
  11 C11           -4.2537     0.1391     1.5825 C.3     
  12 N12           -5.1200    -0.2357     0.4561 N.3     
  13 C13           -4.4971     0.1231    -0.8257 C.3     
  14 C14            2.8118    -2.5893    -0.3264 C.2     
  15 O15            3.8047    -1.8907    -0.3960 O.2     
  16 C16            0.9214     2.1766    -0.5632 C.2     
  17 C17            0.7449     3.6396    -0.5952 C.2     
  18 O18            1.9138     1.6728    -1.0539 O.2     
  19 N19           -0.3074     4.3382    -0.0892 N.2     
  20 C20            1.6067     4.5465    -1.1312 C.2     
  21 O21            1.0631     5.7601    -0.9457 O.3     
  22 C22           -0.1051     5.6031    -0.3071 C.2     
  23 N23            2.9280    -3.9314    -0.3668 N.am    
  24 C24           -6.3827     0.3482     0.5799 C.ar    
  25 C25           -7.5150    -0.4522     0.6596 C.ar    
  26 C26           -6.5085     1.7310     0.6292 C.ar    
  27 C27           -7.7584     2.3050     0.7516 C.ar    
  28 C28           -8.8843     1.5051     0.8254 C.ar    
  29 C29           -8.7622     0.1285     0.7819 C.ar    
  30 C30            4.2505    -4.5487    -0.4946 C.3     
  31 C31            4.1026    -6.0714    -0.5164 C.3     
  32 C32            5.4838    -6.7160    -0.6498 C.3     
  33 N33            5.3422    -8.1740    -0.6707 N.am    
  34 C34            5.1757    -8.8696    -1.8023 C.2     
  35 C35            5.0639   -10.3416    -1.4700 C.3     
  36 C36            5.1961   -10.3764     0.0662 C.3     
  37 C37            5.3743    -8.9210     0.4399 C.2     
  38 O38            5.5164    -8.4977     1.5669 O.2     
  39 C39           -1.0367     6.7175     0.0942 C.3     
  40 C40           -0.4935     7.7834     1.0480 C.3     
  41 C41           -0.7238     8.1218    -0.4263 C.3     
  42 C42           -7.3829    -1.9527     0.6123 C.3     
  43 O43            5.1225    -8.3954    -2.9167 O.2     
  44 H44           -0.7815     1.8014     0.4487 H       
  45 H45           -1.7859    -2.8115     0.0654 H       
  46 H46            0.4310    -3.8453    -0.1504 H       
  47 H47            2.2386     0.0465    -0.2231 H       
  48 H48           -2.6766    -0.3112    -1.8937 H       
  49 H49           -3.3172    -1.6760    -0.9468 H       
  50 H50           -3.0710    -1.6598     1.4887 H       
  51 H51           -2.2556    -0.2835     2.2702 H       
  52 H52           -4.7308    -0.1481     2.5195 H       
  53 H53           -4.0902     1.2167     1.5726 H       
  54 H54           -4.3365     1.2005    -0.8629 H       
  55 H55           -5.1518    -0.1758    -1.6443 H       
  56 H56            2.5488     4.3310    -1.6134 H       
  57 H57            2.1360    -4.4887    -0.3113 H       
  58 H58           -5.6297     2.3561     0.5723 H       
  59 H59           -7.8569     3.3798     0.7900 H       
  60 H60           -9.8606     1.9566     0.9218 H       
  61 H61           -9.6434    -0.4932     0.8398 H       
  62 H62            4.7188    -4.2159    -1.4209 H       
  63 H63            4.8714    -4.2560     0.3521 H       
  64 H64            3.6343    -6.4042     0.4099 H       
  65 H65            3.4817    -6.3641    -1.3631 H       
  66 H66            5.9521    -6.3832    -1.5761 H       
  67 H67            6.1047    -6.4233     0.1969 H       
  68 H68            4.0950   -10.7325    -1.7806 H       
  69 H69            5.8730   -10.9029    -1.9375 H       
  70 H70            4.2929   -10.7846     0.5198 H       
  71 H71            6.0709   -10.9550     0.3630 H       
  72 H72           -2.0859     6.4399     0.1947 H       
  73 H73           -1.1854     8.2073     1.7757 H       
  74 H74            0.5377     7.6786     1.3852 H       
  75 H75            0.1560     8.2396    -1.0590 H       
  76 H76           -1.5672     8.7684    -0.6684 H       
  77 H77           -7.2617    -2.3389     1.6243 H       
  78 H78           -8.2789    -2.3824     0.1643 H       
  79 H79           -6.5125    -2.2221     0.0139 H       
@<TRIPOS>BOND
   1    1    2 1
   2    1   16 am
   3    1   44 1
   4    2    3 ar
   5    2    7 ar
   6    3    4 ar
   7    3    8 1
   8    4    5 ar
   9    4   45 1
  10    5    6 ar
  11    5   46 1
  12    6    7 ar
  13    6   14 1
  14    7   47 1
  15    8    9 1
  16    8   10 1
  17    9   13 1
  18    9   48 1
  19    9   49 1
  20   10   11 1
  21   10   50 1
  22   10   51 1
  23   11   12 1
  24   11   52 1
  25   11   53 1
  26   12   13 1
  27   12   24 1
  28   13   54 1
  29   13   55 1
  30   14   15 2
  31   14   23 am
  32   16   18 2
  33   16   17 1
  34   17   19 1
  35   17   20 2
  36   19   22 2
  37   20   21 1
  38   20   56 1
  39   21   22 1
  40   22   39 1
  41   23   30 1
  42   23   57 1
  43   24   25 ar
  44   24   26 ar
  45   25   42 1
  46   25   29 ar
  47   26   27 ar
  48   26   58 1
  49   27   28 ar
  50   27   59 1
  51   28   29 ar
  52   28   60 1
  53   29   61 1
  54   30   31 1
  55   30   62 1
  56   30   63 1
  57   31   32 1
  58   31   64 1
  59   31   65 1
  60   32   33 1
  61   32   66 1
  62   32   67 1
  63   33   34 am
  64   33   37 am
  65   34   35 1
  66   34   43 2
  67   35   36 1
  68   35   68 1
  69   35   69 1
  70   36   37 1
  71   36   70 1
  72   36   71 1
  73   37   38 2
  74   39   40 1
  75   39   41 1
  76   39   72 1
  77   40   41 1
  78   40   73 1
  79   40   74 1
  80   41   75 1
  81   41   76 1
  82   42   77 1
  83   42   78 1
  84   42   79 1

#	End of record

