#	Name: ASD01420372
#	Creating user name:	WinNT
#	Creation time:	15. 06. 2019 19:20

#	Modifying user name:	WinNT
#	Modification time:	15. 06. 2019 19:20

#	Program:	/corina/corina34_cracker 3.40 0067  02.08.2006

@<TRIPOS>MOLECULE
ASD01420372
  65   68    0    0    0
SMALL
NO_CHARGES


@<TRIPOS>ATOM
   1 C1            -0.0144     1.2120     0.0087 C.2     
   2 O2             0.1295     0.0132     0.1547 O.2     
   3 C3             1.0482     3.4384    -0.4755 C.3     
   4 N4             1.0607     2.0009    -0.1867 N.am    
   5 C5             2.4665     1.5858    -0.1513 C.3     
   6 C6             3.3116     2.8043    -0.4252 C.ar    
   7 C7             4.6836     2.9612    -0.5037 C.ar    
   8 C8             5.2260     4.2102    -0.7735 C.ar    
   9 C9             4.3869     5.3009    -0.9642 C.ar    
  10 C10            3.0188     5.1381    -0.8847 C.ar    
  11 C11            2.4800     3.8908    -0.6154 C.ar    
  12 N12            6.6114     4.3700    -0.8525 N.3     
  13 C13            6.9643     5.7650    -1.1452 C.3     
  14 C14            8.4744     5.8745    -1.3681 C.3     
  15 C15            9.2069     5.3961    -0.1115 C.3     
  16 C16            8.7850     3.9573     0.1990 C.3     
  17 C17            7.2659     3.9034     0.3765 C.3     
  18 C18           10.7174     5.4457    -0.3500 C.3     
  19 C19           11.1365     6.8825    -0.6679 C.3     
  20 C20           11.4481     4.9675     0.9063 C.3     
  21 C21           -1.3642     1.8009     0.0394 C.ar    
  22 C22           -2.2646     1.4464     1.0558 C.ar    
  23 C23           -3.5308     2.0049     1.0775 C.ar    
  24 C24           -3.9068     2.9112     0.0968 C.ar    
  25 C25           -3.0152     3.2636    -0.9116 C.ar    
  26 C26           -1.7517     2.7197    -0.9407 C.ar    
  27 C27           -3.4329     4.2490    -1.9725 C.3     
  28 C28           -2.5005     5.4616    -1.9378 C.3     
  29 C29           -3.3523     3.5828    -3.3475 C.3     
  30 O30           -5.1495     3.4560     0.1208 O.3     
  31 O31           -1.8954     0.5593     2.0134 O.3     
  32 H32            0.5097     3.6238    -1.4048 H       
  33 H33            0.5694     3.9755     0.3433 H       
  34 H34            2.7079     1.1824     0.8321 H       
  35 H35            2.6482     0.8307    -0.9161 H       
  36 H36            5.3333     2.1115    -0.3546 H       
  37 H37            4.8045     6.2745    -1.1739 H       
  38 H38            2.3663     5.9859    -1.0326 H       
  39 H39            6.4401     6.0915    -2.0434 H       
  40 H40            6.6744     6.3969    -0.3057 H       
  41 H41            8.7631     5.2536    -2.2162 H       
  42 H42            8.7382     6.9127    -1.5700 H       
  43 H43            8.9484     6.0408     0.7285 H       
  44 H44            9.0785     3.3062    -0.6244 H       
  45 H45            9.2706     3.6257     1.1168 H       
  46 H46            6.9745     4.5439     1.2088 H       
  47 H47            6.9606     2.8777     0.5836 H       
  48 H48           10.9743     4.7983    -1.1884 H       
  49 H49           10.8796     7.5299     0.1705 H       
  50 H50           12.2126     6.9179    -0.8379 H       
  51 H51           10.6159     7.2232    -1.5629 H       
  52 H52           11.1495     3.9439     1.1327 H       
  53 H53           12.5242     5.0029     0.7363 H       
  54 H54           11.1912     5.6149     1.7447 H       
  55 H55           -4.2266     1.7346     1.8580 H       
  56 H56           -1.0610     2.9992    -1.7225 H       
  57 H57           -4.4568     4.5725    -1.7850 H       
  58 H58           -1.4766     5.1381    -2.1253 H       
  59 H59           -2.8027     6.1743    -2.7051 H       
  60 H60           -2.5580     5.9362    -0.9582 H       
  61 H61           -4.0165     2.7190    -3.3722 H       
  62 H62           -3.6544     4.2956    -4.1148 H       
  63 H63           -2.3284     3.2594    -3.5350 H       
  64 H64           -5.2088     4.2782     0.6264 H       
  65 H65           -1.4867     0.9660     2.7898 H       
@<TRIPOS>BOND
   1    1    2 2
   2    1    4 am
   3    1   21 1
   4    3    4 1
   5    3   11 1
   6    3   32 1
   7    3   33 1
   8    4    5 1
   9    5    6 1
  10    5   34 1
  11    5   35 1
  12    6    7 ar
  13    6   11 ar
  14    7    8 ar
  15    7   36 1
  16    8    9 ar
  17    8   12 1
  18    9   10 ar
  19    9   37 1
  20   10   11 ar
  21   10   38 1
  22   12   13 1
  23   12   17 1
  24   13   14 1
  25   13   39 1
  26   13   40 1
  27   14   15 1
  28   14   41 1
  29   14   42 1
  30   15   16 1
  31   15   18 1
  32   15   43 1
  33   16   17 1
  34   16   44 1
  35   16   45 1
  36   17   46 1
  37   17   47 1
  38   18   19 1
  39   18   20 1
  40   18   48 1
  41   19   49 1
  42   19   50 1
  43   19   51 1
  44   20   52 1
  45   20   53 1
  46   20   54 1
  47   21   22 ar
  48   21   26 ar
  49   22   23 ar
  50   22   31 1
  51   23   24 ar
  52   23   55 1
  53   24   25 ar
  54   24   30 1
  55   25   26 ar
  56   25   27 1
  57   26   56 1
  58   27   28 1
  59   27   29 1
  60   27   57 1
  61   28   58 1
  62   28   59 1
  63   28   60 1
  64   29   61 1
  65   29   62 1
  66   29   63 1
  67   30   64 1
  68   31   65 1

#	End of record

