#	Name: ASD01884833
#	Creating user name:	WinNT
#	Creation time:	15. 06. 2019 19:48

#	Modifying user name:	WinNT
#	Modification time:	15. 06. 2019 19:48

#	Program:	/corina/corina34_cracker 3.40 0067  02.08.2006

@<TRIPOS>MOLECULE
ASD01884833
  47   51    0    0    0
SMALL
NO_CHARGES


@<TRIPOS>ATOM
   1 C1            -0.4381     1.2685     0.2479 C.3     
   2 C2            -0.1565    -0.2340     0.1842 C.3     
   3 H3            -1.0900    -0.7846     0.2998 H       
   4 C4             0.4758    -0.5782    -1.1643 C.3     
   5 N5             1.0589    -1.9151    -1.1851 N.am    
   6 C6             1.7496    -2.4082    -0.1291 C.2     
   7 O7             2.4056    -3.4301    -0.2120 O.2     
   8 C8             1.6640    -1.6436     1.1185 C.2     
   9 C9             2.3590    -1.7476     2.3046 C.2     
  10 C10            1.8698    -0.7359     3.1577 C.2     
  11 N11            0.9347    -0.0667     2.5273 N.2     
  12 N12            0.7664    -0.6047     1.2590 N.pl3   
  13 C13            3.4137    -2.7308     2.6219 C.2     
  14 C14            3.4310    -4.0486     2.2761 C.2     
  15 N15            4.5595    -4.5833     2.7542 N.2     
  16 C16            5.2472    -3.6662     3.3807 C.2     
  17 N17            4.5769    -2.4956     3.3206 N.pl3   
  18 H18            4.8605    -1.6489     3.6996 H       
  19 C19            6.5769    -3.8792     4.0571 C.3     
  20 C20            7.0428    -2.8133     5.0510 C.3     
  21 C21            6.5666    -4.1760     5.5580 C.3     
  22 C22            0.9004    -2.7090    -2.3251 C.ar    
  23 C23            0.1210    -3.8572    -2.2705 C.ar    
  24 C24           -0.0340    -4.6398    -3.3981 C.ar    
  25 C25            0.5856    -4.2816    -4.5809 C.ar    
  26 C26            1.3632    -3.1378    -4.6393 C.ar    
  27 Cl27           2.1395    -2.6918    -6.1266 Cl      
  28 C28            1.5174    -2.3478    -3.5159 C.ar    
  29 C29            0.4146    -5.1382    -5.8089 C.3     
  30 F30           -0.4067    -6.2293    -5.5057 F       
  31 F31           -0.1735    -4.3807    -6.8276 F       
  32 F32            1.6652    -5.5996    -6.2335 F       
  33 H33            0.4958     1.8185     0.1322 H       
  34 H34           -1.1236     1.5440    -0.5535 H       
  35 H35           -0.8872     1.5135     1.2104 H       
  36 H36           -0.2891    -0.5154    -1.9383 H       
  37 H37            1.2565     0.1501    -1.3836 H       
  38 H38            2.2093    -0.5444     4.1649 H       
  39 H39            2.6685    -4.5691     1.7157 H       
  40 H40            7.3387    -4.3709     3.4521 H       
  41 H41            8.1113    -2.6034     5.0999 H       
  42 H42            6.3875    -1.9580     5.2156 H       
  43 H43            5.5980    -4.2172     6.0562 H       
  44 H44            7.3218    -4.8627     5.9405 H       
  45 H45           -0.3633    -4.1382    -1.3469 H       
  46 H46           -0.6398    -5.5329    -3.3557 H       
  47 H47            2.1202    -1.4529    -3.5628 H       
@<TRIPOS>BOND
   1    1    2 1
   2    1   33 1
   3    1   34 1
   4    1   35 1
   5    2    3 1
   6    2   12 1
   7    2    4 1
   8    4    5 1
   9    4   36 1
  10    4   37 1
  11    5    6 am
  12    5   22 1
  13    6    7 2
  14    6    8 1
  15    8   12 1
  16    8    9 2
  17    9   10 1
  18    9   13 1
  19   10   11 2
  20   10   38 1
  21   11   12 1
  22   13   17 1
  23   13   14 2
  24   14   15 1
  25   14   39 1
  26   15   16 2
  27   16   17 1
  28   16   19 1
  29   17   18 1
  30   19   21 1
  31   19   20 1
  32   19   40 1
  33   20   21 1
  34   20   41 1
  35   20   42 1
  36   21   43 1
  37   21   44 1
  38   22   28 ar
  39   22   23 ar
  40   23   24 ar
  41   23   45 1
  42   24   25 ar
  43   24   46 1
  44   25   26 ar
  45   25   29 1
  46   26   27 1
  47   26   28 ar
  48   28   47 1
  49   29   30 1
  50   29   31 1
  51   29   32 1

#	End of record

