#	Name: ASD01000136
#	Creating user name:	WinNT
#	Creation time:	15. 06. 2019 18:54

#	Modifying user name:	WinNT
#	Modification time:	15. 06. 2019 18:54

#	Program:	/corina/corina34_cracker 3.40 0067  02.08.2006

@<TRIPOS>MOLECULE
ASD01000136
  38   40    0    0    0
SMALL
NO_CHARGES


@<TRIPOS>ATOM
   1 C1            -0.1364     4.2882     1.0255 C.ar    
   2 C2            -0.6840     3.0189     0.8641 C.ar    
   3 C3             0.1305     1.9476     0.5218 C.ar    
   4 C4             1.4847     2.1388     0.3413 C.ar    
   5 C5             2.0364     3.4083     0.5021 C.ar    
   6 C6             1.2180     4.4837     0.8454 C.ar    
   7 C7             3.4926     3.6152     0.3088 C.ar    
   8 C8             4.0460     4.8841     0.4691 C.ar    
   9 C9             5.4015     5.0707     0.2884 C.ar    
  10 C10            6.2103     4.0013    -0.0516 C.ar    
  11 C11            5.6663     2.7396    -0.2120 C.ar    
  12 C12            4.3130     2.5403    -0.0282 C.ar    
  13 N13           -2.0576     2.8218     1.0476 N.am    
  14 C14           -2.5176     1.6234     1.4584 C.2     
  15 N15           -3.8319     1.4542     1.7041 N.am    
  16 O16           -1.7467     0.6949     1.6073 O.2     
  17 F17           -0.9315     5.3302     1.3530 F       
  18 C18            7.6895     4.2116    -0.2484 C.3     
  19 C19            8.4685     4.8649     0.8949 C.3     
  20 C20            8.6421     3.3726     0.6056 C.3     
  21 C21            8.1248     4.5398    -1.6780 C.3     
  22 F22            7.6065     5.7852    -2.0490 F       
  23 F23            9.5218     4.5780    -1.7429 F       
  24 F24            7.6443     3.5564    -2.5493 F       
  25 H25           -0.2966     0.9635     0.3972 H       
  26 H26            2.1172     1.3047     0.0758 H       
  27 H27            1.6434     5.4686     0.9702 H       
  28 H28            3.4154     5.7200     0.7339 H       
  29 H29            5.8315     6.0537     0.4124 H       
  30 H30            6.3024     1.9082    -0.4776 H       
  31 H31            3.8901     1.5540    -0.1494 H       
  32 H32           -2.6785     3.5478     0.8790 H       
  33 H33           -4.4468     2.1949     1.5853 H       
  34 H34           -4.1629     0.5917     1.9998 H       
  35 H35            9.2914     5.5282     0.6286 H       
  36 H36            7.9111     5.1426     1.7895 H       
  37 H37            8.1990     2.6685     1.3099 H       
  38 H38            9.5793     3.0541     0.1490 H       
@<TRIPOS>BOND
   1    1    2 ar
   2    1    6 ar
   3    1   17 1
   4    2    3 ar
   5    2   13 1
   6    3    4 ar
   7    3   25 1
   8    4    5 ar
   9    4   26 1
  10    5    6 ar
  11    5    7 1
  12    6   27 1
  13    7    8 ar
  14    7   12 ar
  15    8    9 ar
  16    8   28 1
  17    9   10 ar
  18    9   29 1
  19   10   11 ar
  20   10   18 1
  21   11   12 ar
  22   11   30 1
  23   12   31 1
  24   13   14 am
  25   13   32 1
  26   14   15 am
  27   14   16 2
  28   15   33 1
  29   15   34 1
  30   18   19 1
  31   18   20 1
  32   18   21 1
  33   19   20 1
  34   19   35 1
  35   19   36 1
  36   20   37 1
  37   20   38 1
  38   21   22 1
  39   21   23 1
  40   21   24 1

#	End of record

