#	Name: ASD03082228
#	Creating user name:	WinNT
#	Creation time:	15. 06. 2019 20:27

#	Modifying user name:	WinNT
#	Modification time:	15. 06. 2019 20:27

#	Program:	/corina/corina34_cracker 3.40 0067  02.08.2006

@<TRIPOS>MOLECULE
ASD03082228
  44   46    0    0    0
SMALL
NO_CHARGES


@<TRIPOS>ATOM
   1 N1            -0.4556     1.1218    -0.0139 N.am    
   2 N2            -0.1758    -0.2544    -0.0164 N.2     
   3 C3             1.1304    -0.3807    -0.0222 C.2     
   4 N4             1.6912     0.8316    -0.0235 N.2     
   5 C5             0.7536     1.7563    -0.0186 C.2     
   6 N6             1.8237    -1.5901    -0.0258 N.pl3   
   7 C7             1.1261    -2.7966     0.0936 C.ar    
   8 C8             1.6705    -3.9684    -0.4163 C.ar    
   9 C9             0.9800    -5.1583    -0.2973 C.ar    
  10 C10           -0.2545    -5.1840     0.3299 C.ar    
  11 C11           -0.7993    -4.0173     0.8385 C.ar    
  12 C12           -0.1093    -2.8258     0.7272 C.ar    
  13 C13            1.5700    -6.4298    -0.8508 C.3     
  14 F14            2.8118    -6.1531    -1.4327 F       
  15 F15            1.7361    -7.3561     0.1844 F       
  16 F16            0.7097    -6.9607    -1.8179 F       
  17 C17            2.0105     5.1974     0.8688 C.ar    
  18 C18            1.8391     3.8200     0.9088 C.ar    
  19 C19            0.9709     3.2178    -0.0187 C.ar    
  20 C20            0.3191     4.0424    -0.9419 C.ar    
  21 C21            0.5509     5.4019    -0.9074 C.ar    
  22 N22            1.3729     5.9306    -0.0213 N.ar    
  23 C23           -1.6730     1.7002    -0.0130 C.2     
  24 N24           -2.7803     0.9399    -0.1237 N.am    
  25 F25           -0.9283    -6.3493     0.4452 F       
  26 C26           -4.1036     1.5685    -0.1227 C.3     
  27 O27           -1.7722     2.9070     0.0876 O.2     
  28 N28            2.5154     3.0487     1.8510 N.pl3   
  29 C29            3.4170     3.6897     2.8114 C.3     
  30 H30            2.7899    -1.5950    -0.1112 H       
  31 H31            2.6330    -3.9488    -0.9058 H       
  32 H32           -1.7624    -4.0395     1.3266 H       
  33 H33           -0.5323    -1.9168     1.1287 H       
  34 H34            2.6709     5.6738     1.5782 H       
  35 H35           -0.3559     3.6204    -1.6718 H       
  36 H36            0.0509     6.0441    -1.6174 H       
  37 H37           -2.7011    -0.0236    -0.2040 H       
  38 H38           -4.2481     2.1096     0.8124 H       
  39 H39           -4.1764     2.2632    -0.9595 H       
  40 H40           -4.8708     0.8004    -0.2204 H       
  41 H41            2.3893     2.0871     1.8712 H       
  42 H42            4.2124     4.2063     2.2741 H       
  43 H43            2.8579     4.4078     3.4113 H       
  44 H44            3.8516     2.9319     3.4633 H       
@<TRIPOS>BOND
   1    1    2 1
   2    1    5 1
   3    1   23 am
   4    2    3 2
   5    3    4 1
   6    3    6 1
   7    4    5 2
   8    5   19 1
   9    6    7 1
  10    6   30 1
  11    7    8 ar
  12    7   12 ar
  13    8    9 ar
  14    8   31 1
  15    9   10 ar
  16    9   13 1
  17   10   11 ar
  18   10   25 1
  19   11   12 ar
  20   11   32 1
  21   12   33 1
  22   13   14 1
  23   13   15 1
  24   13   16 1
  25   17   18 ar
  26   17   22 ar
  27   17   34 1
  28   18   19 ar
  29   18   28 1
  30   19   20 ar
  31   20   21 ar
  32   20   35 1
  33   21   22 ar
  34   21   36 1
  35   23   24 am
  36   23   27 2
  37   24   26 1
  38   24   37 1
  39   26   38 1
  40   26   39 1
  41   26   40 1
  42   28   29 1
  43   28   41 1
  44   29   42 1
  45   29   43 1
  46   29   44 1

#	End of record

