#	Name: ASD02500252
#	Creating user name:	WinNT
#	Creation time:	15. 06. 2019 20:22

#	Modifying user name:	WinNT
#	Modification time:	15. 06. 2019 20:22

#	Program:	/corina/corina34_cracker 3.40 0067  02.08.2006

@<TRIPOS>MOLECULE
ASD02500252
  64   68    0    0    0
SMALL
NO_CHARGES


@<TRIPOS>ATOM
   1 N1            -3.3207     5.4866     0.4446 N.ar    
   2 C2            -4.4964     6.0463     0.5952 C.ar    
   3 C3            -5.3318     5.7218     1.6620 C.ar    
   4 C4            -4.9315     4.7978     2.5847 C.ar    
   5 C5            -3.6684     4.1985     2.4196 C.ar    
   6 C6            -3.1891     3.2410     3.3276 C.ar    
   7 C7            -1.9615     2.6846     3.1333 C.ar    
   8 C8            -1.1738     3.0531     2.0449 C.ar    
   9 C9            -1.6072     3.9781     1.1454 C.ar    
  10 C10           -2.8689     4.5750     1.3118 C.ar    
  11 S11           -0.5903     4.4263    -0.2219 S.o2    
  12 O12           -0.5781     5.8466    -0.2644 O.2     
  13 O13            0.5900     3.6417    -0.1184 O.2     
  14 N14           -1.3666     3.9240    -1.5957 N.am    
  15 C15           -1.5674     2.5670    -1.8243 C.ar    
  16 C16           -2.8111     2.1125    -2.2461 C.ar    
  17 C17           -3.0108     0.7626    -2.4740 C.ar    
  18 C18           -1.9529    -0.1393    -2.2767 C.ar    
  19 C19           -0.7072     0.3339    -1.8520 C.ar    
  20 C20           -0.5193     1.6686    -1.6351 C.ar    
  21 O21           -4.2227     0.3125    -2.8855 O.3     
  22 C22           -5.2508     1.2888    -3.0642 C.3     
  23 C23           -2.1543    -1.5780    -2.5157 C.2     
  24 O24           -3.0543    -2.1684    -1.9493 O.2     
  25 N25           -1.3414    -2.2408    -3.3621 N.am    
  26 C26           -1.5873    -3.6538    -3.6828 C.3     
  27 C27           -1.6955    -3.7990    -5.2057 C.3     
  28 N28           -0.5476    -3.1216    -5.8248 N.am    
  29 C29           -0.3017    -1.7086    -5.5041 C.3     
  30 C30           -0.1967    -1.5618    -3.9855 C.3     
  31 C31            0.2653    -3.7844    -6.6712 C.2     
  32 C32            1.3529    -3.0657    -7.3653 C.ar    
  33 C33            2.6653    -3.5451    -7.3008 C.ar    
  34 C34            3.6773    -2.8661    -7.9541 C.ar    
  35 C35            3.3932    -1.7173    -8.6687 C.ar    
  36 C36            2.0962    -1.2385    -8.7358 C.ar    
  37 C37            1.0753    -1.9075    -8.0940 C.ar    
  38 O38            0.1032    -4.9738    -6.8633 O.2     
  39 F39            2.9432    -4.6675    -6.6021 F       
  40 H40           -4.8262     6.7788    -0.1268 H       
  41 H41           -6.2949     6.2007     1.7595 H       
  42 H42           -5.5661     4.5346     3.4180 H       
  43 H43           -3.7903     2.9478     4.1755 H       
  44 H44           -1.5936     1.9481     3.8323 H       
  45 H45           -0.2034     2.5978     1.9130 H       
  46 H46           -1.6813     4.5763    -2.2410 H       
  47 H47           -3.6204     2.8118    -2.3955 H       
  48 H48            0.1084    -0.3572    -1.6990 H       
  49 H49            0.4457     2.0295    -1.3111 H       
  50 H50           -6.1657     0.7966    -3.3940 H       
  51 H51           -5.4338     1.8008    -2.1195 H       
  52 H52           -4.9370     2.0135    -3.8154 H       
  53 H53           -0.7605    -4.2616    -3.3152 H       
  54 H54           -2.5181    -3.9779    -3.2173 H       
  55 H55           -1.6852    -4.8554    -5.4742 H       
  56 H56           -2.6215    -3.3400    -5.5521 H       
  57 H57            0.6291    -1.3844    -5.9696 H       
  58 H58           -1.1285    -1.1008    -5.8717 H       
  59 H59           -0.2094    -0.5047    -3.7199 H       
  60 H60            0.7313    -2.0172    -3.6400 H       
  61 H61            4.6917    -3.2338    -7.9057 H       
  62 H62            4.1873    -1.1905    -9.1769 H       
  63 H63            1.8823    -0.3404    -9.2962 H       
  64 H64            0.0635    -1.5342    -8.1518 H       
@<TRIPOS>BOND
   1    1    2 ar
   2    1   10 ar
   3    2    3 ar
   4    2   40 1
   5    3    4 ar
   6    3   41 1
   7    4    5 ar
   8    4   42 1
   9    5    6 ar
  10    5   10 ar
  11    6    7 ar
  12    6   43 1
  13    7    8 ar
  14    7   44 1
  15    8    9 ar
  16    8   45 1
  17    9   10 ar
  18    9   11 1
  19   11   12 2
  20   11   13 2
  21   11   14 am
  22   14   15 1
  23   14   46 1
  24   15   16 ar
  25   15   20 ar
  26   16   17 ar
  27   16   47 1
  28   17   18 ar
  29   17   21 1
  30   18   19 ar
  31   18   23 1
  32   19   20 ar
  33   19   48 1
  34   20   49 1
  35   21   22 1
  36   22   50 1
  37   22   51 1
  38   22   52 1
  39   23   24 2
  40   23   25 am
  41   25   26 1
  42   25   30 1
  43   26   27 1
  44   26   53 1
  45   26   54 1
  46   27   28 1
  47   27   55 1
  48   27   56 1
  49   28   29 1
  50   28   31 am
  51   29   30 1
  52   29   57 1
  53   29   58 1
  54   30   59 1
  55   30   60 1
  56   31   32 1
  57   31   38 2
  58   32   33 ar
  59   32   37 ar
  60   33   34 ar
  61   33   39 1
  62   34   35 ar
  63   34   61 1
  64   35   36 ar
  65   35   62 1
  66   36   37 ar
  67   36   63 1
  68   37   64 1

#	End of record

