#	Name: ASD03240606
#	Creating user name:	WinNT
#	Creation time:	15. 06. 2019 20:35

#	Modifying user name:	WinNT
#	Modification time:	15. 06. 2019 20:35

#	Program:	/corina/corina34_cracker 3.40 0067  02.08.2006

@<TRIPOS>MOLECULE
ASD03240606
  69   75    0    0    0
SMALL
NO_CHARGES


@<TRIPOS>ATOM
   1 C1            -0.0166     1.3754     0.0096 C.ar    
   2 C2             0.0021    -0.0041     0.0020 C.ar    
   3 N3             1.1422    -0.6683    -0.0054 N.ar    
   4 C4             2.3145    -0.0481    -0.0053 C.ar    
   5 C5             2.3702     1.3442    -0.0124 C.ar    
   6 C6             1.1861     2.0698     0.0018 C.ar    
   7 N7             3.4820    -0.8058     0.0229 N.pl3   
   8 C8             4.3590    -0.7190     1.1007 C.ar    
   9 C9             4.9949     0.4895     1.4045 C.ar    
  10 C10            4.7635     1.6837     0.5624 C.2     
  11 N11            3.5939     2.0276    -0.0512 N.pl3   
  12 C12            4.6048    -1.8384     1.8845 C.ar    
  13 C13            5.4646    -1.7528     2.9628 C.ar    
  14 C14            6.0851    -0.5546     3.2716 C.ar    
  15 C15            5.8554     0.5662     2.4993 C.ar    
  16 N16            5.6749     2.5943     0.2853 N.2     
  17 C17            5.1445     3.5401    -0.5052 C.2     
  18 C18            3.8224     3.2040    -0.7364 C.2     
  19 C19            2.8494     3.9544    -1.5536 C.ar    
  20 C20            2.7500     5.3422    -1.4283 C.ar    
  21 C21            2.0271     3.2809    -2.4603 C.ar    
  22 C22            1.1200     3.9887    -3.2208 C.ar    
  23 C23            1.0231     5.3627    -3.0873 C.ar    
  24 C24            1.8383     6.0371    -2.1953 C.ar    
  25 C25            5.8486     4.7307    -1.0358 C.ar    
  26 C26            0.0297     6.1290    -3.9221 C.3     
  27 C27            6.8165     5.3691    -0.2657 C.ar    
  28 C28            7.4746     6.4890    -0.7722 C.ar    
  29 C29            7.1588     6.9627    -2.0478 C.ar    
  30 C30            6.1975     6.3240    -2.8057 C.ar    
  31 C31            5.5467     5.2110    -2.3113 C.ar    
  32 N32           -1.0288     5.2746    -4.4766 N.3     
  33 C33           -0.5000     7.3999    -3.2372 C.3     
  34 C34           -0.4044     8.0852    -4.6106 C.3     
  35 C35            0.6832     7.0559    -4.9608 C.3     
  36 C36            8.5030     7.1733     0.0383 C.2     
  37 O37            9.1378     8.2552    -0.4528 O.3     
  38 O38            8.7762     6.7604     1.1475 O.2     
  39 C39           10.1363     8.8767     0.3988 C.3     
  40 C40           10.7445    10.0806    -0.3234 C.3     
  41 H41           -0.9556     1.9091     0.0170 H       
  42 H42           -0.9306    -0.5486     0.0025 H       
  43 H43            1.2002     3.1497     0.0061 H       
  44 H44            3.6864    -1.4004    -0.7157 H       
  45 H45            4.1239    -2.7769     1.6510 H       
  46 H46            5.6536    -2.6265     3.5689 H       
  47 H47            6.7512    -0.4964     4.1197 H       
  48 H48            6.3409     1.4999     2.7421 H       
  49 H49            3.3854     5.8698    -0.7323 H       
  50 H50            2.1019     2.2087    -2.5658 H       
  51 H51            0.4839     3.4695    -3.9224 H       
  52 H52            1.7573     7.1094    -2.0962 H       
  53 H53            7.0564     4.9988     0.7201 H       
  54 H54            7.6672     7.8303    -2.4418 H       
  55 H55            5.9567     6.6939    -3.7914 H       
  56 H56            4.7958     4.7161    -2.9093 H       
  57 H57           -0.6373     4.4668    -4.9373 H       
  58 H58           -1.6843     5.0001    -3.7603 H       
  59 H59           -1.5208     7.3035    -2.8674 H       
  60 H60            0.1830     7.8128    -2.4948 H       
  61 H61           -1.3085     7.9867    -5.2115 H       
  62 H62           -0.0365     9.1100    -4.5625 H       
  63 H63            1.6896     7.3748    -4.6896 H       
  64 H64            0.6175     6.6818    -5.9824 H       
  65 H65            9.6682     9.2075     1.3258 H       
  66 H66           10.9208     8.1546     0.6254 H       
  67 H67           11.4941    10.5471     0.3158 H       
  68 H68           11.2127     9.7498    -1.2505 H       
  69 H69            9.9600    10.8027    -0.5500 H       
@<TRIPOS>BOND
   1    1    2 ar
   2    1    6 ar
   3    1   41 1
   4    2    3 ar
   5    2   42 1
   6    3    4 ar
   7    4    5 ar
   8    4    7 1
   9    5    6 ar
  10    5   11 1
  11    6   43 1
  12    7    8 1
  13    7   44 1
  14    8    9 ar
  15    8   12 ar
  16    9   10 1
  17    9   15 ar
  18   10   11 1
  19   10   16 2
  20   11   18 1
  21   12   13 ar
  22   12   45 1
  23   13   14 ar
  24   13   46 1
  25   14   15 ar
  26   14   47 1
  27   15   48 1
  28   16   17 1
  29   17   18 2
  30   17   25 1
  31   18   19 1
  32   19   20 ar
  33   19   21 ar
  34   20   24 ar
  35   20   49 1
  36   21   22 ar
  37   21   50 1
  38   22   23 ar
  39   22   51 1
  40   23   24 ar
  41   23   26 1
  42   24   52 1
  43   25   27 ar
  44   25   31 ar
  45   26   33 1
  46   26   32 1
  47   26   35 1
  48   27   28 ar
  49   27   53 1
  50   28   29 ar
  51   28   36 1
  52   29   30 ar
  53   29   54 1
  54   30   31 ar
  55   30   55 1
  56   31   56 1
  57   32   57 1
  58   32   58 1
  59   33   34 1
  60   33   59 1
  61   33   60 1
  62   34   35 1
  63   34   61 1
  64   34   62 1
  65   35   63 1
  66   35   64 1
  67   36   37 1
  68   36   38 2
  69   37   39 1
  70   39   40 1
  71   39   65 1
  72   39   66 1
  73   40   67 1
  74   40   68 1
  75   40   69 1

#	End of record

