#	Name: ASD02210002
#	Creating user name:	WinNT
#	Creation time:	15. 06. 2019 20:20

#	Modifying user name:	WinNT
#	Modification time:	15. 06. 2019 20:20

#	Program:	/corina/corina34_cracker 3.40 0067  02.08.2006

@<TRIPOS>MOLECULE
ASD02210002
  58   62    0    0    0
SMALL
NO_CHARGES


@<TRIPOS>ATOM
   1 P1            -0.0198     1.6058     0.0109 P.3     
   2 P2             2.1671     3.5690     0.3967 P.3     
   3 P3             4.9273     4.2124     1.2642 P.3     
   4 O4             0.0874    -5.1220     1.7122 O.3     
   5 O5            -0.3759    -3.0407     2.4986 O.3     
   6 O6            -0.7216    -3.0153    -1.0405 O.3     
   7 O7             0.0021    -0.0041     0.0020 O.3     
   8 O8            -3.4278    -3.3086     3.8427 O.2     
   9 O9            -1.9150    -3.7740     5.2374 O.2     
  10 O10            2.3547    -3.9403     5.2738 O.2     
  11 O11            1.8079    -2.7798     3.5991 O.2     
  12 O12           -1.7369    -8.7642     4.8955 O.2     
  13 O13            0.1062    -8.3625     5.8400 O.2     
  14 O14            1.4907     2.1630    -0.0006 O.3     
  15 O15           -0.7984     2.1391    -1.2935 O.3     
  16 O16           -0.7125     2.0831     1.2285 O.2     
  17 O17            3.7599     3.3787     0.5333 O.3     
  18 O18            1.8528     4.6578    -0.7470 O.3     
  19 O19            1.6135     4.0356     1.6875 O.2     
  20 O20            4.9354     3.8694     2.7929 O.co2   
  21 O21            6.3116     3.8328     0.6365 O.co2   
  22 O22            4.6709     5.7462     1.0745 O.co2   
  23 N23           -0.1767    -5.3144    -1.5695 N.2     
  24 N24           -2.4237    -3.9298     4.1417 N.pl3   
  25 N25            1.6212    -3.7422     4.3219 N.pl3   
  26 N26            0.0087    -7.4420    -2.1571 N.2     
  27 N27           -0.8152    -8.0030     5.1292 N.pl3   
  28 N28           -0.3457    -4.4047    -3.8919 N.2     
  29 N29            0.1217    -6.1179    -5.4435 N.2     
  30 N30            0.1580    -8.4045    -4.9128 N.pl3   
  31 C31           -0.4017    -4.4270     2.8698 C.3     
  32 C32           -1.8278    -4.8642     3.1836 C.3     
  33 C33           -0.2208    -4.3218     0.6500 C.2     
  34 C34            0.5027    -4.6711     4.0434 C.2     
  35 C35           -0.5098    -3.0244     1.1393 C.2     
  36 C36           -0.3637    -4.2717    -0.7027 C.2     
  37 C37           -1.8202    -6.2501     3.7745 C.2     
  38 C38           -0.8094    -2.2592     0.0714 C.2     
  39 C39            0.2990    -5.7223     4.8324 C.2     
  40 C40           -0.8149    -6.6412     4.5494 C.2     
  41 C41           -0.3210    -5.2400    -2.8669 C.2     
  42 C42           -1.1801    -0.7991     0.1135 C.3     
  43 C43           -0.6183    -6.6999    -3.2461 C.3     
  44 C44            0.1899    -6.5682    -1.2032 C.2     
  45 C45           -0.0871    -7.1152    -4.5941 C.2     
  46 C46           -0.1376    -4.8504    -5.1136 C.2     
  47 H47           -0.3990     1.8638    -2.1300 H       
  48 H48            2.1875     4.4172    -1.6217 H       
  49 H49            0.5002    -8.6302    -5.7919 H       
  50 H50           -0.0082    -9.1049    -4.2625 H       
  51 H51           -2.4162    -4.8662     2.2660 H       
  52 H52           -2.6352    -6.9278     3.5675 H       
  53 H53            0.9477    -5.9004     5.6773 H       
  54 H54           -1.6790    -0.5780     1.0570 H       
  55 H55           -1.8511    -0.5706    -0.7146 H       
  56 H56           -1.6953    -6.8632    -3.2080 H       
  57 H57            0.5853    -6.8162    -0.2293 H       
  58 H58           -0.1838    -4.1304    -5.9172 H       
@<TRIPOS>BOND
   1    1    7 1
   2    1   14 1
   3    1   15 1
   4    1   16 2
   5    2   14 1
   6    2   17 1
   7    2   18 1
   8    2   19 2
   9    3   17 1
  10    3   20 ar
  11    3   21 ar
  12    3   22 ar
  13    4   31 1
  14    4   33 1
  15    5   31 1
  16    5   35 1
  17    6   36 1
  18    6   38 1
  19    7   42 1
  20    8   24 2
  21    9   24 2
  22   10   25 2
  23   11   25 2
  24   12   27 2
  25   13   27 2
  26   15   47 1
  27   18   48 1
  28   23   36 1
  29   23   41 2
  30   23   44 1
  31   24   32 1
  32   25   34 1
  33   26   43 1
  34   26   44 2
  35   27   40 1
  36   28   41 1
  37   28   46 2
  38   29   45 2
  39   29   46 1
  40   30   45 1
  41   30   49 1
  42   30   50 1
  43   31   32 1
  44   31   34 1
  45   32   37 1
  46   32   51 1
  47   33   35 1
  48   33   36 2
  49   34   39 2
  50   35   38 2
  51   37   40 2
  52   37   52 1
  53   38   42 1
  54   39   40 1
  55   39   53 1
  56   41   43 1
  57   42   54 1
  58   42   55 1
  59   43   45 1
  60   43   56 1
  61   44   57 1
  62   46   58 1

#	End of record

