#	Name: ASD00311249
#	Creating user name:	WinNT
#	Creation time:	15. 06. 2019 18:34

#	Modifying user name:	WinNT
#	Modification time:	15. 06. 2019 18:34

#	Program:	/corina/corina34_cracker 3.40 0067  02.08.2006

@<TRIPOS>MOLECULE
ASD00311249
  38   41    0    0    0
SMALL
NO_CHARGES


@<TRIPOS>ATOM
   1 C1             0.0145     1.3978     0.2127 C.2     
   2 C2             0.0576     0.0321     0.4189 C.2     
   3 C3             1.2815    -0.6615     0.1914 C.2     
   4 C4             2.4000     0.0466    -0.2306 C.2     
   5 C5             2.3030     1.4398    -0.4263 C.2     
   6 N6             1.1413     2.0748    -0.2069 N.am    
   7 C7            -1.2299    -0.5013     0.8606 C.2     
   8 C8            -2.1912     0.4129     0.9808 C.2     
   9 S9            -1.5976     2.0094     0.5685 S.3     
  10 O10            3.2795     2.0705    -0.7968 O.2     
  11 C11           -1.4473    -1.9381     1.1497 C.ar    
  12 C12           -1.7475    -2.3536     2.4466 C.ar    
  13 C13           -1.9494    -3.6930     2.7096 C.ar    
  14 C14           -1.8541    -4.6231     1.6899 C.ar    
  15 C15           -1.5562    -4.2170     0.4014 C.ar    
  16 C16           -1.3583    -2.8797     0.1248 C.ar    
  17 C17            3.6814    -0.6547    -0.4722 C.2     
  18 C18            3.7809    -1.5623    -1.4577 C.2     
  19 C19            5.0873    -2.2728    -1.6962 C.3     
  20 C20            6.2535    -1.3278    -1.4111 C.3     
  21 C21            6.0735    -0.6767    -0.0659 C.2     
  22 C22            4.8628    -0.3571     0.3653 C.2     
  23 O23            1.3540    -1.9990     0.3854 O.3     
  24 Cl24          -3.8164     0.0689     1.4849 Cl      
  25 H25            1.0925     3.0334    -0.3469 H       
  26 H26           -1.8214    -1.6285     3.2436 H       
  27 H27           -2.1819    -4.0160     3.7136 H       
  28 H28           -2.0126    -5.6704     1.9006 H       
  29 H29           -1.4824    -4.9477    -0.3905 H       
  30 H30           -1.1302    -2.5633    -0.8823 H       
  31 H31            2.9248    -1.7825    -2.0782 H       
  32 H32            5.1538    -3.1389    -1.0377 H       
  33 H33            5.1351    -2.6041    -2.7336 H       
  34 H34            7.1860    -1.8920    -1.4178 H       
  35 H35            6.2927    -0.5588    -2.1826 H       
  36 H36            6.9363    -0.4657     0.5485 H       
  37 H37            4.7395     0.1164     1.3281 H       
  38 H38            2.2434    -2.3639     0.2813 H       
@<TRIPOS>BOND
   1    1    2 2
   2    1    6 1
   3    1    9 1
   4    2    3 1
   5    2    7 1
   6    3    4 2
   7    3   23 1
   8    4    5 1
   9    4   17 1
  10    5    6 am
  11    5   10 2
  12    6   25 1
  13    7    8 2
  14    7   11 1
  15    8    9 1
  16    8   24 1
  17   11   12 ar
  18   11   16 ar
  19   12   13 ar
  20   12   26 1
  21   13   14 ar
  22   13   27 1
  23   14   15 ar
  24   14   28 1
  25   15   16 ar
  26   15   29 1
  27   16   30 1
  28   17   18 2
  29   17   22 1
  30   18   19 1
  31   18   31 1
  32   19   20 1
  33   19   32 1
  34   19   33 1
  35   20   21 1
  36   20   34 1
  37   20   35 1
  38   21   22 2
  39   21   36 1
  40   22   37 1
  41   23   38 1

#	End of record

