#	Name: ASD01882874
#	Creating user name:	WinNT
#	Creation time:	15. 06. 2019 19:45

#	Modifying user name:	WinNT
#	Modification time:	15. 06. 2019 19:45

#	Program:	/corina/corina34_cracker 3.40 0067  02.08.2006

@<TRIPOS>MOLECULE
ASD01882874
  58   62    0    0    0
SMALL
NO_CHARGES


@<TRIPOS>ATOM
   1 C1            -0.0159     1.3220     0.0093 C.2     
   2 N2             0.0021    -0.0041     0.0020 N.2     
   3 C3             1.1523    -0.6857    -0.0126 C.2     
   4 C4             2.3835     0.0173    -0.0206 C.2     
   5 C5             2.3523     1.3664    -0.0131 C.2     
   6 N6             1.1484     2.0132     0.0019 N.pl3   
   7 O7            -1.0993     2.1290     0.0184 O.3     
   8 C8             0.8540     3.4562     0.0125 C.3     
   9 C9            -0.6831     3.5211     0.0242 C.3     
  10 O10            1.1423    -1.9071    -0.0187 O.2     
  11 C11           -1.1944     4.2379    -1.2270 C.3     
  12 O12           -2.6209     4.3119    -1.1842 O.3     
  13 C13           -3.2386     4.9234    -2.2289 C.ar    
  14 C14           -4.6216     5.0305    -2.2523 C.ar    
  15 C15           -5.2471     5.6525    -3.3154 C.ar    
  16 C16           -4.4961     6.1681    -4.3555 C.ar    
  17 C17           -3.1176     6.0622    -4.3348 C.ar    
  18 C18           -2.4869     5.4466    -3.2710 C.ar    
  19 C19           -5.1811     6.8461    -5.5140 C.3     
  20 C20           -4.6972     8.2940    -5.6161 C.3     
  21 C21           -5.3927     8.9824    -6.7923 C.3     
  22 C22           -5.0582     8.2403    -8.0878 C.3     
  23 C23           -5.5421     6.7924    -7.9857 C.3     
  24 C24           -4.8466     6.1041    -6.8095 C.3     
  25 S25            3.9174    -0.8496    -0.0394 S.o     
  26 O26            4.8719     0.1855     0.1526 O.2     
  27 C27            3.9200    -1.6841     1.5124 C.ar    
  28 C28            3.3825    -2.9535     1.6155 C.ar    
  29 C29            3.3845    -3.6082     2.8330 C.ar    
  30 C30            3.9245    -2.9937     3.9473 C.ar    
  31 C31            4.4629    -1.7247     3.8440 C.ar    
  32 C32            4.4648    -1.0717     2.6256 C.ar    
  33 H33            3.2727     1.9314    -0.0185 H       
  34 H34            1.2651     3.9237     0.9072 H       
  35 H35            1.2480     3.9334    -0.8848 H       
  36 H36           -1.0396     4.0220     0.9243 H       
  37 H37           -0.7793     5.2451    -1.2639 H       
  38 H38           -0.8857     3.6850    -2.1142 H       
  39 H39           -5.2087     4.6276    -1.4403 H       
  40 H40           -6.3237     5.7358    -3.3343 H       
  41 H41           -2.5332     6.4651    -5.1488 H       
  42 H42           -1.4099     5.3684    -3.2529 H       
  43 H43           -6.2595     6.8337    -5.3562 H       
  44 H44           -4.9355     8.8226    -4.6932 H       
  45 H45           -3.6188     8.3064    -5.7739 H       
  46 H46           -6.4712     8.9700    -6.6345 H       
  47 H47           -5.0480    10.0139    -6.8650 H       
  48 H48           -5.5537     8.7307    -8.9257 H       
  49 H49           -3.9798     8.2527    -8.2456 H       
  50 H50           -6.6205     6.7800    -7.8279 H       
  51 H51           -5.3038     6.2638    -8.9087 H       
  52 H52           -3.7682     6.1165    -6.9673 H       
  53 H53           -5.1913     5.0726    -6.7368 H       
  54 H54            2.9606    -3.4336     0.7449 H       
  55 H55            2.9639    -4.5996     2.9136 H       
  56 H56            3.9255    -3.5049     4.8986 H       
  57 H57            4.8845    -1.2444     4.7147 H       
  58 H58            4.8887    -0.0817     2.5441 H       
@<TRIPOS>BOND
   1    1    2 2
   2    1    6 1
   3    1    7 1
   4    2    3 1
   5    3    4 1
   6    3   10 2
   7    4    5 2
   8    4   25 1
   9    5    6 1
  10    5   33 1
  11    6    8 1
  12    7    9 1
  13    8    9 1
  14    8   34 1
  15    8   35 1
  16    9   11 1
  17    9   36 1
  18   11   12 1
  19   11   37 1
  20   11   38 1
  21   12   13 1
  22   13   14 ar
  23   13   18 ar
  24   14   15 ar
  25   14   39 1
  26   15   16 ar
  27   15   40 1
  28   16   17 ar
  29   16   19 1
  30   17   18 ar
  31   17   41 1
  32   18   42 1
  33   19   20 1
  34   19   24 1
  35   19   43 1
  36   20   21 1
  37   20   44 1
  38   20   45 1
  39   21   22 1
  40   21   46 1
  41   21   47 1
  42   22   23 1
  43   22   48 1
  44   22   49 1
  45   23   24 1
  46   23   50 1
  47   23   51 1
  48   24   52 1
  49   24   53 1
  50   25   26 2
  51   25   27 1
  52   27   28 ar
  53   27   32 ar
  54   28   29 ar
  55   28   54 1
  56   29   30 ar
  57   29   55 1
  58   30   31 ar
  59   30   56 1
  60   31   32 ar
  61   31   57 1
  62   32   58 1

#	End of record

