#	Name: ASD01411109
#	Creating user name:	WinNT
#	Creation time:	15. 06. 2019 19:19

#	Modifying user name:	WinNT
#	Modification time:	15. 06. 2019 19:19

#	Program:	/corina/corina34_cracker 3.40 0067  02.08.2006

@<TRIPOS>MOLECULE
ASD01411109
  58   61    0    0    0
SMALL
NO_CHARGES


@<TRIPOS>ATOM
   1 C1            -0.0065     1.5466    -0.0049 C.3     
   2 C2             0.0124     0.0113    -0.0220 C.3     
   3 O3             1.3362     2.0394    -0.0042 O.3     
   4 C4             0.9889    -0.4505     1.0304 C.2     
   5 C5             2.0436     1.8256     1.2237 C.3     
   6 C6             1.9097     0.3681     1.5972 C.2     
   7 C7             1.1536    -1.7523     1.6242 C.ar    
   8 C8             1.4402     2.6986     2.3258 C.3     
   9 N9             2.6461    -0.3292     2.5108 N.pl3   
  10 C10            0.4918    -2.9851     1.4354 C.ar    
  11 C11            2.2158    -1.6260     2.5570 C.ar    
  12 C12            0.9391    -4.0604     2.2122 C.ar    
  13 C13            2.6338    -2.7184     3.3123 C.ar    
  14 C14            1.9734    -3.9219     3.1153 C.ar    
  15 C15            2.1244     2.3839     3.6576 C.3     
  16 C16            3.5206     2.1780     1.0366 C.3     
  17 N17            3.6498     3.6114     0.7628 N.am    
  18 S18            4.9559     4.4502     1.3397 S.o2    
  19 O19            5.0777     4.1079     2.7134 O.2     
  20 C20            6.3859     3.8050     0.5375 C.ar    
  21 O21            4.8080     5.7874     0.8821 O.2     
  22 C22            6.8177     4.3564    -0.6544 C.ar    
  23 C23            7.9395     3.8502    -1.2838 C.ar    
  24 C24            8.6298     2.7929    -0.7211 C.ar    
  25 C25            8.1986     2.2422     0.4712 C.ar    
  26 C26            7.0792     2.7512     1.1028 C.ar    
  27 C27           -0.5815    -3.1279     0.4984 C.1     
  28 N28           -1.4330    -3.2412    -0.2450 N.1     
  29 C29            3.7603    -2.5976     4.3060 C.3     
  30 C30            1.6160     3.3470     4.7323 C.3     
  31 C31            4.0817     1.3929    -0.1209 C.2     
  32 O32            4.5422     1.9713    -1.0765 O.2     
  33 O33            4.0699     0.0510    -0.0902 O.3     
  34 H34           -0.5278     1.9136    -0.8890 H       
  35 H35           -0.5214     1.8937     0.8909 H       
  36 H36           -0.9825    -0.3725     0.2039 H       
  37 H37            0.3314    -0.3429    -1.0023 H       
  38 H38            1.5902     3.7498     2.0797 H       
  39 H39            0.3728     2.4935     2.4083 H       
  40 H40            3.3662     0.0396     3.0460 H       
  41 H41            0.4622    -5.0231     2.1021 H       
  42 H42            2.2801    -4.7831     3.6903 H       
  43 H43            1.8957     1.3592     3.9504 H       
  44 H44            3.2029     2.4984     3.5480 H       
  45 H45            4.0710     1.9305     1.9443 H       
  46 H46            2.9703     4.0691     0.2435 H       
  47 H47            6.2783     5.1824    -1.0940 H       
  48 H48            8.2764     4.2805    -2.2153 H       
  49 H49            9.5059     2.3970    -1.2132 H       
  50 H50            8.7377     1.4160     0.9107 H       
  51 H51            6.7423     2.3210     2.0344 H       
  52 H52            3.3575    -2.3189     5.2797 H       
  53 H53            4.2776    -3.5536     4.3868 H       
  54 H54            4.4606    -1.8329     3.9701 H       
  55 H55            0.5376     3.2325     4.8419 H       
  56 H56            2.1035     3.1228     5.6811 H       
  57 H57            1.8447     4.3717     4.4395 H       
  58 H58            4.4408    -0.4089    -0.8557 H       
@<TRIPOS>BOND
   1    1    2 1
   2    1    3 1
   3    1   34 1
   4    1   35 1
   5    2    4 1
   6    2   36 1
   7    2   37 1
   8    3    5 1
   9    4    6 2
  10    4    7 1
  11    5    8 1
  12    5   16 1
  13    5    6 1
  14    6    9 1
  15    7   10 ar
  16    7   11 ar
  17    8   15 1
  18    8   38 1
  19    8   39 1
  20    9   11 1
  21    9   40 1
  22   10   12 ar
  23   10   27 1
  24   11   13 ar
  25   12   14 ar
  26   12   41 1
  27   13   14 ar
  28   13   29 1
  29   14   42 1
  30   15   30 1
  31   15   43 1
  32   15   44 1
  33   16   17 1
  34   16   31 1
  35   16   45 1
  36   17   18 am
  37   17   46 1
  38   18   19 2
  39   18   20 1
  40   18   21 2
  41   20   22 ar
  42   20   26 ar
  43   22   23 ar
  44   22   47 1
  45   23   24 ar
  46   23   48 1
  47   24   25 ar
  48   24   49 1
  49   25   26 ar
  50   25   50 1
  51   26   51 1
  52   27   28 3
  53   29   52 1
  54   29   53 1
  55   29   54 1
  56   30   55 1
  57   30   56 1
  58   30   57 1
  59   31   32 2
  60   31   33 1
  61   33   58 1

#	End of record

