#	Name: ASD01940587
#	Creating user name:	WinNT
#	Creation time:	15. 06. 2019 20:12

#	Modifying user name:	WinNT
#	Modification time:	15. 06. 2019 20:12

#	Program:	/corina/corina34_cracker 3.40 0067  02.08.2006

@<TRIPOS>MOLECULE
ASD01940587
  53   55    0    0    0
SMALL
NO_CHARGES


@<TRIPOS>ATOM
   1 C1            -0.1332     0.8760     0.2869 C.ar    
   2 C2            -0.0786    -0.5098     0.3488 C.ar    
   3 C3             0.5824    -1.1308     1.4013 C.ar    
   4 C4             1.1841    -0.3701     2.3853 C.ar    
   5 C5             1.1308     1.0092     2.3254 C.ar    
   6 C6             0.4721     1.6355     1.2758 C.ar    
   7 N7            -0.6877    -1.2787    -0.6455 N.am    
   8 S8            -2.1251    -2.0414    -0.3382 S.o2    
   9 C9            -3.3022    -0.6910    -0.0528 C.3     
  10 O10           -2.4282    -2.7193    -1.5498 O.2     
  11 O11           -1.8901    -2.7606     0.8646 O.2     
  12 O12            0.4210     2.9921     1.2181 O.3     
  13 C13            1.5684     3.6625     0.9295 C.ar    
  14 C14            2.7152     2.9609     0.5872 C.ar    
  15 C15            3.8839     3.6416     0.2931 C.ar    
  16 C16            3.9140     5.0248     0.3386 C.ar    
  17 C17            2.7708     5.7343     0.6796 C.ar    
  18 C18            1.5918     5.0521     0.9715 C.ar    
  19 N19            2.8013     7.1333     0.7255 N.pl3   
  20 C20            3.8693     7.8287     0.1496 C.ar    
  21 C21            4.5105     7.3161    -0.9704 C.ar    
  22 C22            5.5651     8.0051    -1.5371 C.ar    
  23 C23            5.9840     9.2048    -0.9905 C.ar    
  24 C24            5.3488     9.7194     0.1255 C.ar    
  25 C25            4.2881     9.0384     0.6940 C.ar    
  26 F26            3.6637     9.5437     1.7802 F       
  27 I27            7.5846    10.2445    -1.8544 I       
  28 N28            0.4314     5.7658     1.3122 N.am    
  29 S29           -0.2567     5.5634     2.8048 S.o2    
  30 C30           -4.6551    -1.2728     0.3618 C.3     
  31 F31            4.9986     2.9541    -0.0388 F       
  32 O32           -1.3331     6.4881     2.8791 O.2     
  33 O33           -0.4210     4.1634     2.9845 O.2     
  34 N34            0.8575     6.0515     3.9285 N.am    
  35 H35           -0.6425     1.3614    -0.5325 H       
  36 H36            0.6255    -2.2088     1.4505 H       
  37 H37            1.6968    -0.8546     3.2030 H       
  38 H38            1.6018     1.6010     3.0963 H       
  39 H39           -0.2688    -1.3659    -1.5160 H       
  40 H40           -2.9270    -0.0434     0.7397 H       
  41 H41           -3.4207    -0.1126    -0.9690 H       
  42 H42            2.6961     1.8817     0.5506 H       
  43 H43            4.8279     5.5524     0.1088 H       
  44 H44            2.0817     7.6202     1.1567 H       
  45 H45            4.1850     6.3792    -1.3978 H       
  46 H46            6.0637     7.6062    -2.4082 H       
  47 H47            5.6787    10.6559     0.5503 H       
  48 H48            0.0329     6.3773     0.6733 H       
  49 H49           -5.0303    -1.9204    -0.4307 H       
  50 H50           -4.5366    -1.8512     1.2780 H       
  51 H51           -5.3624    -0.4613     0.5333 H       
  52 H52            1.7244     6.3787     3.6416 H       
  53 H53            0.6432     6.0103     4.8737 H       
@<TRIPOS>BOND
   1    1    2 ar
   2    1    6 ar
   3    1   35 1
   4    2    3 ar
   5    2    7 1
   6    3    4 ar
   7    3   36 1
   8    4    5 ar
   9    4   37 1
  10    5    6 ar
  11    5   38 1
  12    6   12 1
  13    7    8 am
  14    7   39 1
  15    8    9 1
  16    8   10 2
  17    8   11 2
  18    9   30 1
  19    9   40 1
  20    9   41 1
  21   12   13 1
  22   13   14 ar
  23   13   18 ar
  24   14   15 ar
  25   14   42 1
  26   15   16 ar
  27   15   31 1
  28   16   17 ar
  29   16   43 1
  30   17   18 ar
  31   17   19 1
  32   18   28 1
  33   19   20 1
  34   19   44 1
  35   20   21 ar
  36   20   25 ar
  37   21   22 ar
  38   21   45 1
  39   22   23 ar
  40   22   46 1
  41   23   24 ar
  42   23   27 1
  43   24   25 ar
  44   24   47 1
  45   25   26 1
  46   28   29 am
  47   28   48 1
  48   29   32 2
  49   29   33 2
  50   29   34 am
  51   30   49 1
  52   30   50 1
  53   30   51 1
  54   34   52 1
  55   34   53 1

#	End of record

