#	Name: ASD01913587
#	Creating user name:	WinNT
#	Creation time:	15. 06. 2019 20:01

#	Modifying user name:	WinNT
#	Modification time:	15. 06. 2019 20:01

#	Program:	/corina/corina34_cracker 3.40 0067  02.08.2006

@<TRIPOS>MOLECULE
ASD01913587
  38   40    0    0    0
SMALL
NO_CHARGES


@<TRIPOS>ATOM
   1 C1            -2.9828     0.0702    -1.3176 C.ar    
   2 C2            -2.3933    -0.1638    -0.0794 C.ar    
   3 C3            -3.1041     0.1826     1.0651 C.ar    
   4 N4            -4.3067     0.7183     0.9364 N.ar    
   5 C5            -4.8313     0.9244    -0.2549 C.ar    
   6 N6            -4.1897     0.6099    -1.3622 N.ar    
   7 C7            -1.0661    -2.0680     0.1060 C.ar    
   8 C8             0.1632    -2.6890     0.3081 C.ar    
   9 C9             0.2165    -4.0680     0.4073 C.ar    
  10 N10           -0.8754    -4.7964     0.3134 N.ar    
  11 C11           -2.0690    -4.2463     0.1207 C.ar    
  12 C12           -2.2034    -2.8666     0.0109 C.ar    
  13 C13           -3.2684    -5.1109     0.0219 C.2     
  14 N14           -3.1452    -6.4488     0.1274 N.am    
  15 O15           -1.1550    -0.7170     0.0097 O.3     
  16 O16           -4.3630    -4.6136    -0.1544 O.2     
  17 C17           -4.3309    -7.3036     0.0297 C.3     
  18 C18           -3.9174    -8.7019    -0.4393 C.3     
  19 C19           -5.1503    -9.6092    -0.4628 C.3     
  20 O20           -5.7395    -9.6437     0.8386 O.3     
  21 C21           -6.1885    -8.3715     1.3098 C.3     
  22 C22           -4.9973    -7.4145     1.4045 C.3     
  23 H23           -2.4609    -0.1810    -2.2291 H       
  24 H24           -2.6804     0.0162     2.0445 H       
  25 H25           -5.8156     1.3633    -0.3257 H       
  26 H26            1.0656    -2.1009     0.3863 H       
  27 H27            1.1683    -4.5537     0.5637 H       
  28 H28           -3.1747    -2.4210    -0.1454 H       
  29 H29           -2.2714    -6.8458     0.2681 H       
  30 H30           -5.0333    -6.8726    -0.6837 H       
  31 H31           -3.4922    -8.6392    -1.4410 H       
  32 H32           -3.1764    -9.1120     0.2469 H       
  33 H33           -5.8740    -9.2205    -1.1793 H       
  34 H34           -4.8546   -10.6168    -0.7548 H       
  35 H35           -6.9258    -7.9667     0.6165 H       
  36 H36           -6.6407    -8.4876     2.2947 H       
  37 H37           -4.2782    -7.7986     2.1279 H       
  38 H38           -5.3444    -6.4311     1.7214 H       
@<TRIPOS>BOND
   1    1    2 ar
   2    1    6 ar
   3    1   23 1
   4    2    3 ar
   5    2   15 1
   6    3    4 ar
   7    3   24 1
   8    4    5 ar
   9    5    6 ar
  10    5   25 1
  11    7    8 ar
  12    7   12 ar
  13    7   15 1
  14    8    9 ar
  15    8   26 1
  16    9   10 ar
  17    9   27 1
  18   10   11 ar
  19   11   12 ar
  20   11   13 1
  21   12   28 1
  22   13   14 am
  23   13   16 2
  24   14   17 1
  25   14   29 1
  26   17   18 1
  27   17   22 1
  28   17   30 1
  29   18   19 1
  30   18   31 1
  31   18   32 1
  32   19   20 1
  33   19   33 1
  34   19   34 1
  35   20   21 1
  36   21   22 1
  37   21   35 1
  38   21   36 1
  39   22   37 1
  40   22   38 1

#	End of record

