#	Name: ASD01916508
#	Creating user name:	WinNT
#	Creation time:	15. 06. 2019 20:07

#	Modifying user name:	WinNT
#	Modification time:	15. 06. 2019 20:07

#	Program:	/corina/corina34_cracker 3.40 0067  02.08.2006

@<TRIPOS>MOLECULE
ASD01916508
  32   33    0    0    0
SMALL
NO_CHARGES


@<TRIPOS>ATOM
   1 C1            -0.0450     1.4864     0.2196 C.2     
   2 C2             0.0044    -0.0027    -0.0071 C.3     
   3 C3             1.4162    -0.5161     0.2832 C.3     
   4 C4             1.4644    -1.9706     0.0618 C.1     
   5 C5             1.5030    -3.1306    -0.1148 C.1     
   6 O6             0.9471     2.0764     0.5766 O.2     
   7 O7            -1.1901     2.1582     0.0194 O.3     
   8 C8             1.5499    -4.5455    -0.3301 C.ar    
   9 C9             2.7443    -5.2377    -0.1261 C.ar    
  10 C10            2.7734    -6.6044    -0.3384 C.ar    
  11 C11            1.6076    -7.2367    -0.7481 C.ar    
  12 C12            0.4586    -6.4897    -0.9314 C.ar    
  13 N13            0.4551    -5.1898    -0.7173 N.ar    
  14 C14           -1.1391     3.5118     0.1321 C.ar    
  15 C15           -0.5651     4.2717    -0.8767 C.ar    
  16 C16           -0.5146     5.6482    -0.7596 C.ar    
  17 C17           -1.0361     6.2675     0.3630 C.ar    
  18 C18           -1.6078     5.5115     1.3691 C.ar    
  19 C19           -1.6661     4.1358     1.2534 C.ar    
  20 Cl20           0.2039     6.6005    -2.0208 Cl      
  21 H21           -0.7052    -0.4952     0.6578 H       
  22 H22           -0.2560    -0.2214    -1.0426 H       
  23 H23            2.1257    -0.0237    -0.3817 H       
  24 H24            1.6766    -0.2974     1.3188 H       
  25 H25            3.6333    -4.7138     0.1927 H       
  26 H26            3.6832    -7.1669    -0.1890 H       
  27 H27            1.5981    -8.3025    -0.9226 H       
  28 H28           -0.4496    -6.9793    -1.2505 H       
  29 H29           -0.1579     3.7884    -1.7524 H       
  30 H30           -0.9959     7.3430     0.4532 H       
  31 H31           -2.0138     5.9969     2.2443 H       
  32 H32           -2.1173     3.5463     2.0377 H       
@<TRIPOS>BOND
   1    1    2 1
   2    1    6 2
   3    1    7 1
   4    2    3 1
   5    2   21 1
   6    2   22 1
   7    3    4 1
   8    3   23 1
   9    3   24 1
  10    4    5 3
  11    5    8 1
  12    7   14 1
  13    8    9 ar
  14    8   13 ar
  15    9   10 ar
  16    9   25 1
  17   10   11 ar
  18   10   26 1
  19   11   12 ar
  20   11   27 1
  21   12   13 ar
  22   12   28 1
  23   14   15 ar
  24   14   19 ar
  25   15   16 ar
  26   15   29 1
  27   16   17 ar
  28   16   20 1
  29   17   18 ar
  30   17   30 1
  31   18   19 ar
  32   18   31 1
  33   19   32 1

#	End of record

