#	Name: ASD01208471
#	Creating user name:	WinNT
#	Creation time:	15. 06. 2019 19:09

#	Modifying user name:	WinNT
#	Modification time:	15. 06. 2019 19:09

#	Program:	/corina/corina34_cracker 3.40 0067  02.08.2006

@<TRIPOS>MOLECULE
ASD01208471
  96   98    0    0    0
SMALL
NO_CHARGES


@<TRIPOS>ATOM
   1 N1            -3.3821    10.3527     2.8239 N.pl3   
   2 C2            -2.3985     9.5587     2.2784 C.2     
   3 C3            -1.2133    10.2659     2.3102 C.2     
   4 C4            -1.4829    11.5072     2.8836 C.2     
   5 C5            -2.8252    11.5417     3.1936 C.2     
   6 C6            -2.5780     8.2008     1.7561 C.2     
   7 O7            -1.6278     7.5952     1.2959 O.2     
   8 N8            -3.7952     7.6230     1.7854 N.am    
   9 C9            -3.5397    12.6741     3.8200 C.ar    
  10 C10           -2.8486    13.8406     4.1508 C.ar    
  11 C11           -3.5218    14.8993     4.7370 C.ar    
  12 C12           -4.8815    14.8015     4.9961 C.ar    
  13 C13           -5.5725    13.6437     4.6688 C.ar    
  14 C14           -4.9078    12.5820     4.0768 C.ar    
  15 O15           -6.9039    13.5528     4.9250 O.3     
  16 C16           -7.2993    12.8059     5.9890 C.ar    
  17 C17           -8.6480    12.6900     6.2941 C.ar    
  18 C18           -9.0472    11.9301     7.3764 C.ar    
  19 C19           -8.1043    11.2853     8.1555 C.ar    
  20 C20           -6.7597    11.3996     7.8539 C.ar    
  21 C21           -6.3555    12.1532     6.7691 C.ar    
  22 S22           -8.6170    10.3169     9.5353 S.o2    
  23 O23           -7.4994    10.3377    10.4127 O.2     
  24 O24           -9.8610    10.8859     9.9199 O.2     
  25 C25           -8.8612     8.6532     8.8548 C.3     
  26 O26           -2.8496    16.0356     5.0595 O.3     
  27 C27           -3.6266    17.1355     5.5376 C.3     
  28 C28           -2.9054    18.4465     5.2181 C.3     
  29 C29           -3.8104    17.0104     7.0513 C.3     
  30 O30           -1.6782    18.5051     5.9478 O.3     
  31 C31           -0.9227    19.6965     5.7198 C.3     
  32 C32           -3.9746     6.2659     1.2634 C.3     
  33 C33           -5.4394     5.8508     1.4147 C.3     
  34 C34           -5.6268     4.4336     0.8696 C.3     
  35 O35           -7.0134     4.0896     0.9034 O.3     
  36 Si36          -7.3395     2.5928     0.3435 Si      
  37 C37           -9.1729     2.2779     0.4443 C.3     
  38 C38           -9.5922     2.1714     1.9118 C.3     
  39 C39           -9.9260     3.4329    -0.2188 C.3     
  40 C40           -6.7827     2.4580    -1.4292 C.3     
  41 C41           -7.6112     1.3886    -2.1440 C.3     
  42 C42           -6.9763     3.8050    -2.1285 C.3     
  43 C43           -6.4353     1.3330     1.3759 C.3     
  44 C44           -6.5641     1.6992     2.8559 C.3     
  45 C45           -7.0421    -0.0513     1.1384 C.3     
  46 O46           -5.8030     5.8816     2.7963 O.3     
  47 H47           -4.3156    10.1089     2.9246 H       
  48 H48           -0.2533     9.9205     1.9560 H       
  49 H49           -0.7686    12.2990     3.0545 H       
  50 H50           -4.5525     8.1056     2.1522 H       
  51 H51           -1.7902    13.9173     3.9502 H       
  52 H52           -5.4033    15.6288     5.4540 H       
  53 H53           -5.4472    11.6828     3.8183 H       
  54 H54           -9.3849    13.1937     5.6861 H       
  55 H55          -10.0968    11.8399     7.6145 H       
  56 H56           -6.0252    10.8955     8.4645 H       
  57 H57           -5.3055    12.2381     6.5311 H       
  58 H58           -7.9240     8.2929     8.4306 H       
  59 H59           -9.1833     7.9795     9.6489 H       
  60 H60           -9.6231     8.6873     8.0761 H       
  61 H61           -4.6022    17.1297     5.0514 H       
  62 H62           -2.6954    18.4946     4.1496 H       
  63 H63           -3.5377    19.2876     5.5023 H       
  64 H64           -4.4031    17.8493     7.4160 H       
  65 H65           -4.3242    16.0764     7.2790 H       
  66 H66           -2.8349    17.0162     7.5375 H       
  67 H67           -0.0065    19.6641     6.3093 H       
  68 H68           -0.6716    19.7705     4.6617 H       
  69 H69           -1.5139    20.5636     6.0144 H       
  70 H70           -3.6973     6.2424     0.2095 H       
  71 H71           -3.3419     5.5755     1.8211 H       
  72 H72           -6.0722     6.5412     0.8570 H       
  73 H73           -5.2664     4.3890    -0.1582 H       
  74 H74           -5.0631     3.7308     1.4831 H       
  75 H75           -9.4103     1.3466    -0.0700 H       
  76 H76           -9.2423     3.0497     2.4543 H       
  77 H77          -10.6787     2.1136     1.9760 H       
  78 H78           -9.1541     1.2749     2.3507 H       
  79 H79           -9.7703     3.3968    -1.2970 H       
  80 H80          -10.9906     3.3444    -0.0022 H       
  81 H81           -9.5536     4.3805     0.1705 H       
  82 H82           -5.7288     2.1813    -1.4590 H       
  83 H83           -8.6710     1.5710    -1.9664 H       
  84 H84           -7.4100     1.4285    -3.2146 H       
  85 H85           -7.3426     0.4043    -1.7604 H       
  86 H86           -6.7108     4.6110    -1.4444 H       
  87 H87           -6.3374     3.8517    -3.0104 H       
  88 H88           -8.0186     3.9119    -2.4289 H       
  89 H89           -5.3822     1.3212     1.0949 H       
  90 H90           -7.5919     1.5395     3.1816 H       
  91 H91           -5.8947     1.0722     3.4449 H       
  92 H92           -6.2973     2.7468     2.9955 H       
  93 H93           -8.1265     0.0343     1.0697 H       
  94 H94           -6.6506    -0.4650     0.2091 H       
  95 H95           -6.7814    -0.7094     1.9673 H       
  96 H96           -5.2797     5.2899     3.3541 H       
@<TRIPOS>BOND
   1    1    2 1
   2    1    5 1
   3    1   47 1
   4    2    3 2
   5    2    6 1
   6    3    4 1
   7    3   48 1
   8    4    5 2
   9    4   49 1
  10    5    9 1
  11    6    7 2
  12    6    8 am
  13    8   32 1
  14    8   50 1
  15    9   10 ar
  16    9   14 ar
  17   10   11 ar
  18   10   51 1
  19   11   12 ar
  20   11   26 1
  21   12   13 ar
  22   12   52 1
  23   13   14 ar
  24   13   15 1
  25   14   53 1
  26   15   16 1
  27   16   17 ar
  28   16   21 ar
  29   17   18 ar
  30   17   54 1
  31   18   19 ar
  32   18   55 1
  33   19   20 ar
  34   19   22 1
  35   20   21 ar
  36   20   56 1
  37   21   57 1
  38   22   23 2
  39   22   24 2
  40   22   25 1
  41   25   58 1
  42   25   59 1
  43   25   60 1
  44   26   27 1
  45   27   28 1
  46   27   29 1
  47   27   61 1
  48   28   30 1
  49   28   62 1
  50   28   63 1
  51   29   64 1
  52   29   65 1
  53   29   66 1
  54   30   31 1
  55   31   67 1
  56   31   68 1
  57   31   69 1
  58   32   33 1
  59   32   70 1
  60   32   71 1
  61   33   34 1
  62   33   46 1
  63   33   72 1
  64   34   35 1
  65   34   73 1
  66   34   74 1
  67   35   36 1
  68   36   37 1
  69   36   40 1
  70   36   43 1
  71   37   38 1
  72   37   39 1
  73   37   75 1
  74   38   76 1
  75   38   77 1
  76   38   78 1
  77   39   79 1
  78   39   80 1
  79   39   81 1
  80   40   41 1
  81   40   42 1
  82   40   82 1
  83   41   83 1
  84   41   84 1
  85   41   85 1
  86   42   86 1
  87   42   87 1
  88   42   88 1
  89   43   44 1
  90   43   45 1
  91   43   89 1
  92   44   90 1
  93   44   91 1
  94   44   92 1
  95   45   93 1
  96   45   94 1
  97   45   95 1
  98   46   96 1

#	End of record

