#	Name: ASD08070058
#	Creating user name:	WinNT
#	Creation time:	15. 06. 2019 21:14

#	Modifying user name:	WinNT
#	Modification time:	15. 06. 2019 21:14

#	Program:	/corina/corina34_cracker 3.40 0067  02.08.2006

@<TRIPOS>MOLECULE
ASD08070058
  42   42    0    0    0
SMALL
NO_CHARGES


@<TRIPOS>ATOM
   1 C1            -0.0166     1.3722     0.0096 C.ar    
   2 C2             0.0021    -0.0041     0.0020 C.ar    
   3 C3             1.1761     2.0863     0.0020 C.ar    
   4 C4             2.3950     1.4142    -0.0137 C.ar    
   5 C5             2.4244     0.0379    -0.0218 C.ar    
   6 C6             1.2250    -0.6855    -0.0133 C.ar    
   7 C7             1.2502    -2.1538    -0.0214 C.2     
   8 O8             2.3108    -2.7421    -0.0354 O.2     
   9 C9            -1.0440    -5.2147    -0.1399 C.3     
  10 C10            0.2636    -4.4288    -0.0234 C.3     
  11 C11           -0.0417    -2.9297    -0.0123 C.3     
  12 C12            0.9654    -4.8081     1.2551 C.2     
  13 O13            0.4706    -5.6233     1.9971 O.2     
  14 Cl14           3.8803     2.3129    -0.0236 Cl      
  15 O15            1.1520     3.4429     0.0095 O.3     
  16 C16           -0.1325     4.0688     0.0251 C.3     
  17 C17           -0.7320    -6.7064    -0.2765 C.3     
  18 C18           -2.0396    -7.4923    -0.3930 C.3     
  19 C19           -1.7276    -8.9839    -0.5295 C.3     
  20 O20            2.1403    -4.2402     1.5697 O.3     
  21 C21            2.7592    -4.6533     2.8166 C.3     
  22 H22           -0.9597     1.8983     0.0169 H       
  23 H23           -0.9253    -0.5575     0.0082 H       
  24 H24            3.3704    -0.4830    -0.0346 H       
  25 H25           -1.6476    -5.0500     0.7526 H       
  26 H26           -1.5941    -4.8767    -1.0181 H       
  27 H27            0.9050    -4.6627    -0.8731 H       
  28 H28           -0.6085    -2.6810     0.8849 H       
  29 H29           -0.6268    -2.6715    -0.8949 H       
  30 H30           -0.6927     3.7708    -0.8612 H       
  31 H31           -0.6757     3.7613     0.9187 H       
  32 H32           -0.0089     5.1518     0.0298 H       
  33 H33           -0.1284    -6.8711    -1.1690 H       
  34 H34           -0.1819    -7.0444     0.6017 H       
  35 H35           -2.6432    -7.3276     0.4995 H       
  36 H36           -2.5897    -7.1542    -1.2711 H       
  37 H37           -2.6592    -9.5438    -0.6125 H       
  38 H38           -1.1240    -9.1486    -1.4220 H       
  39 H39           -1.1775    -9.3219     0.3486 H       
  40 H40            2.0915    -4.4241     3.6471 H       
  41 H41            2.9504    -5.7260     2.7894 H       
  42 H42            3.7004    -4.1197     2.9492 H       
@<TRIPOS>BOND
   1    1    2 ar
   2    1    3 ar
   3    1   22 1
   4    2    6 ar
   5    2   23 1
   6    3    4 ar
   7    3   15 1
   8    4    5 ar
   9    4   14 1
  10    5    6 ar
  11    5   24 1
  12    6    7 1
  13    7    8 2
  14    7   11 1
  15    9   10 1
  16    9   17 1
  17    9   25 1
  18    9   26 1
  19   10   11 1
  20   10   12 1
  21   10   27 1
  22   11   28 1
  23   11   29 1
  24   12   13 2
  25   12   20 1
  26   15   16 1
  27   16   30 1
  28   16   31 1
  29   16   32 1
  30   17   18 1
  31   17   33 1
  32   17   34 1
  33   18   19 1
  34   18   35 1
  35   18   36 1
  36   19   37 1
  37   19   38 1
  38   19   39 1
  39   20   21 1
  40   21   40 1
  41   21   41 1
  42   21   42 1

#	End of record

