#	Name: ASD03430774
#	Creating user name:	WinNT
#	Creation time:	15. 06. 2019 20:41

#	Modifying user name:	WinNT
#	Modification time:	15. 06. 2019 20:41

#	Program:	/corina/corina34_cracker 3.40 0067  02.08.2006

@<TRIPOS>MOLECULE
ASD03430774
  36   39    0    0    0
SMALL
NO_CHARGES


@<TRIPOS>ATOM
   1 C1            -0.0167     1.3778     0.0096 C.ar    
   2 C2             0.0021    -0.0041     0.0020 C.ar    
   3 C3             1.2026    -0.6813    -0.0133 C.ar    
   4 C4             2.4093     0.0137    -0.0110 C.ar    
   5 C5             2.3857     1.4047    -0.0082 C.ar    
   6 C6             1.1790     2.0825     0.0020 C.ar    
   7 C7             1.5516    -2.1451    -0.0478 C.3     
   8 C8             3.0371    -2.1438    -0.4339 C.3     
   9 C9             0.4263    -3.8583     1.0105 C.ar    
  10 C10            1.3170    -2.8196     1.2712 C.ar    
  11 C11            0.7173    -2.9059    -1.0378 C.2     
  12 N12            0.0955    -3.8817    -0.3465 N.am    
  13 O13            0.6212    -2.6850    -2.2266 O.2     
  14 C14            1.7862    -2.6027     2.5470 C.ar    
  15 C15            1.3729    -3.4185     3.5857 C.ar    
  16 C16            0.4883    -4.4520     3.3386 C.ar    
  17 C17            0.0161    -4.6743     2.0615 C.ar    
  18 O18            3.4711    -0.8405     0.0003 O.3     
  19 O19            1.1649     3.4414     0.0040 O.3     
  20 C20            2.4313     4.1033    -0.0042 C.3     
  21 C21           -1.3301     2.1165     0.0198 C.3     
  22 H22           -0.9268    -0.5551     0.0084 H       
  23 H23            3.3131     1.9581    -0.0135 H       
  24 H24            3.5759    -2.9282     0.0976 H       
  25 H25            3.1570    -2.2524    -1.5119 H       
  26 H26           -0.5108    -4.5256    -0.7449 H       
  27 H27            2.4773    -1.7949     2.7376 H       
  28 H28            1.7408    -3.2485     4.5868 H       
  29 H29            0.1657    -5.0885     4.1493 H       
  30 H30           -0.6745    -5.4837     1.8764 H       
  31 H31            2.9849     3.8175    -0.8986 H       
  32 H32            2.2773     5.1824    -0.0015 H       
  33 H33            2.9977     3.8150     0.8813 H       
  34 H34           -1.6420     2.2890     1.0499 H       
  35 H35           -1.2130     3.0731    -0.4894 H       
  36 H36           -2.0855     1.5217    -0.4937 H       
@<TRIPOS>BOND
   1    1    2 ar
   2    1    6 ar
   3    1   21 1
   4    2    3 ar
   5    2   22 1
   6    3    4 ar
   7    3    7 1
   8    4    5 ar
   9    4   18 1
  10    5    6 ar
  11    5   23 1
  12    6   19 1
  13    7    8 1
  14    7   10 1
  15    7   11 1
  16    8   18 1
  17    8   24 1
  18    8   25 1
  19    9   10 ar
  20    9   12 1
  21    9   17 ar
  22   10   14 ar
  23   11   12 am
  24   11   13 2
  25   12   26 1
  26   14   15 ar
  27   14   27 1
  28   15   16 ar
  29   15   28 1
  30   16   17 ar
  31   16   29 1
  32   17   30 1
  33   19   20 1
  34   20   31 1
  35   20   32 1
  36   20   33 1
  37   21   34 1
  38   21   35 1
  39   21   36 1

#	End of record

