#	Name: ASD01914431
#	Creating user name:	WinNT
#	Creation time:	15. 06. 2019 20:03

#	Modifying user name:	WinNT
#	Modification time:	15. 06. 2019 20:03

#	Program:	/corina/corina34_cracker 3.40 0067  02.08.2006

@<TRIPOS>MOLECULE
ASD01914431
  64   68    0    0    0
SMALL
NO_CHARGES


@<TRIPOS>ATOM
   1 C1            -2.5811     0.5369    -2.3555 C.ar    
   2 C2            -2.1892    -0.7565    -2.0706 C.ar    
   3 C3            -0.9821    -0.9884    -1.4252 C.ar    
   4 C4            -0.1724     0.0812    -1.0681 C.ar    
   5 C5            -0.5696     1.3725    -1.3557 C.ar    
   6 C6            -1.7724     1.6003    -1.9986 C.ar    
   7 N7            -0.5819    -2.3002    -1.1343 N.pl3   
   8 C8            -1.3358    -3.2606    -0.5143 C.2     
   9 C9            -0.5623    -4.3746    -0.4367 C.2     
  10 N10            0.6306    -4.0901    -0.9977 N.2     
  11 C11            0.6245    -2.8568    -1.4204 C.2     
  12 C12           -0.9593    -5.6737     0.1600 C.ar    
  13 C13           -2.2625    -5.8647     0.6145 C.ar    
  14 C14           -2.6275    -7.0749     1.1684 C.ar    
  15 C15           -1.7005    -8.0988     1.2729 C.ar    
  16 C16           -0.4034    -7.9133     0.8222 C.ar    
  17 C17           -0.0312    -6.7085     0.2623 C.ar    
  18 C18            1.7712    -2.1595    -2.1058 C.3     
  19 O19            0.7472    -3.0092    -4.0550 O.2     
  20 C20            1.6643    -2.3622    -3.5953 C.2     
  21 N21            2.5878    -1.8244    -4.4166 N.am    
  22 F22           -2.0619    -9.2818     1.8162 F       
  23 C23            0.6008    -9.0309     0.9390 C.3     
  24 C24            2.5123    -2.0037    -5.8763 C.3     
  25 C25            2.3627    -0.6238    -6.5198 C.3     
  26 N26            3.3191     0.3170    -5.9528 N.am    
  27 C27            3.9041     0.1770    -4.7623 C.2     
  28 C28            3.7082    -1.0297    -3.8919 C.3     
  29 C29            3.6476     1.4467    -6.7102 C.ar    
  30 C30            4.7255     1.4083    -7.5832 C.ar    
  31 C31            5.0476     2.5294    -8.3323 C.ar    
  32 C32            4.2920     3.6867    -8.2077 C.ar    
  33 C33            3.2190     3.7231    -7.3373 C.ar    
  34 C34            2.8915     2.6063    -6.5934 C.ar    
  35 O35            4.6244     1.0676    -4.3633 O.2     
  36 O36            6.1029     2.4953    -9.1878 O.3     
  37 C37            6.3770     3.6867    -9.9277 C.3     
  38 H38           -3.5179     0.7177    -2.8616 H       
  39 H39           -2.8213    -1.5867    -2.3493 H       
  40 H40            0.7670    -0.0961    -0.5657 H       
  41 H41            0.0597     2.2050    -1.0778 H       
  42 H42           -2.0808     2.6108    -2.2228 H       
  43 H43           -2.3490    -3.1531    -0.1561 H       
  44 H44           -2.9859    -5.0668     0.5338 H       
  45 H45           -3.6373    -7.2238     1.5213 H       
  46 H46            0.9799    -6.5649    -0.0890 H       
  47 H47            1.7351    -1.0936    -1.8807 H       
  48 H48            2.7140    -2.5744    -1.7494 H       
  49 H49            0.5691    -9.6434     0.0380 H       
  50 H50            1.5996    -8.6109     1.0580 H       
  51 H51            0.3600    -9.6466     1.8056 H       
  52 H52            3.4242    -2.4803    -6.2360 H       
  53 H53            1.6501    -2.6217    -6.1269 H       
  54 H54            2.5351    -0.7077    -7.5928 H       
  55 H55            1.3515    -0.2552    -6.3474 H       
  56 H56            3.4898    -0.7126    -2.8721 H       
  57 H57            4.6131    -1.6373    -3.9012 H       
  58 H58            5.3126     0.5069    -7.6786 H       
  59 H59            4.5430     4.5600    -8.7913 H       
  60 H60            2.6330     4.6253    -7.2416 H       
  61 H61            2.0526     2.6374    -5.9140 H       
  62 H62            5.5119     3.9414   -10.5398 H       
  63 H63            6.5864     4.5033    -9.2368 H       
  64 H64            7.2419     3.5241   -10.5708 H       
@<TRIPOS>BOND
   1    1    2 ar
   2    1    6 ar
   3    1   38 1
   4    2    3 ar
   5    2   39 1
   6    3    4 ar
   7    3    7 1
   8    4    5 ar
   9    4   40 1
  10    5    6 ar
  11    5   41 1
  12    6   42 1
  13    7    8 1
  14    7   11 1
  15    8    9 2
  16    8   43 1
  17    9   10 1
  18    9   12 1
  19   10   11 2
  20   11   18 1
  21   12   13 ar
  22   12   17 ar
  23   13   14 ar
  24   13   44 1
  25   14   15 ar
  26   14   45 1
  27   15   16 ar
  28   15   22 1
  29   16   17 ar
  30   16   23 1
  31   17   46 1
  32   18   20 1
  33   18   47 1
  34   18   48 1
  35   19   20 2
  36   20   21 am
  37   21   24 1
  38   21   28 1
  39   23   49 1
  40   23   50 1
  41   23   51 1
  42   24   25 1
  43   24   52 1
  44   24   53 1
  45   25   26 1
  46   25   54 1
  47   25   55 1
  48   26   27 am
  49   26   29 1
  50   27   28 1
  51   27   35 2
  52   28   56 1
  53   28   57 1
  54   29   30 ar
  55   29   34 ar
  56   30   31 ar
  57   30   58 1
  58   31   32 ar
  59   31   36 1
  60   32   33 ar
  61   32   59 1
  62   33   34 ar
  63   33   60 1
  64   34   61 1
  65   36   37 1
  66   37   62 1
  67   37   63 1
  68   37   64 1

#	End of record

