#	Name: ASD01810251
#	Creating user name:	WinNT
#	Creation time:	15. 06. 2019 19:24

#	Modifying user name:	WinNT
#	Modification time:	15. 06. 2019 19:24

#	Program:	/corina/corina34_cracker 3.40 0067  02.08.2006

@<TRIPOS>MOLECULE
ASD01810251
  51   54    0    0    0
SMALL
NO_CHARGES


@<TRIPOS>ATOM
   1 C1             0.1302     1.4190     0.4179 C.ar    
   2 C2             0.1031     0.0316     0.3956 C.ar    
   3 C3             1.2684    -0.6933     0.2582 C.ar    
   4 C4             2.4902    -0.0308     0.1396 C.ar    
   5 C5             2.5128     1.3733     0.1622 C.ar    
   6 C6             1.3256     2.0927     0.3024 C.ar    
   7 N7             3.6626    -0.7431     0.0022 N.pl3   
   8 C8             4.8595    -0.1549    -0.1146 C.2     
   9 C9             5.0085     1.2176    -0.1056 C.2     
  10 C10            3.8111     2.0616     0.0359 C.2     
  11 O11            3.8892     3.2775     0.0493 O.2     
  12 C12            6.3403     1.8256    -0.2350 C.2     
  13 O13            6.4727     3.1671    -0.2248 O.3     
  14 O14            7.3224     1.1188    -0.3513 O.2     
  15 C15            3.5958    -2.2065    -0.0163 C.3     
  16 C16            3.4508    -2.6848    -1.4379 C.ar    
  17 C17            4.5654    -2.8283    -2.2431 C.ar    
  18 N18            4.4516    -3.2452    -3.4879 N.ar    
  19 C19            3.2720    -3.5428    -4.0165 C.ar    
  20 C20            2.1070    -3.4217    -3.2618 C.ar    
  21 C21            2.1975    -2.9910    -1.9496 C.ar    
  22 C22            3.1924    -4.0081    -5.4229 C.ar    
  23 F23            1.2265    -2.0435     0.2390 F       
  24 C24            4.3516    -4.1315    -6.1839 C.ar    
  25 C25            4.2703    -4.5671    -7.4985 C.ar    
  26 C26            3.0340    -4.8786    -8.0513 C.ar    
  27 C27            1.8838    -4.7553    -7.2949 C.ar    
  28 C28            1.9571    -4.3285    -5.9842 C.ar    
  29 N29            5.4306    -4.6920    -8.2663 N.pl3   
  30 C30            6.7174    -4.2453    -7.7271 C.3     
  31 C31            5.3606    -5.2698    -9.6107 C.3     
  32 H32           -0.7910     1.9729     0.5219 H       
  33 H33           -0.8404    -0.4859     0.4870 H       
  34 H34            1.3439     3.1724     0.3193 H       
  35 H35            5.7378    -0.7746    -0.2191 H       
  36 H36            7.3685     3.5205    -0.3128 H       
  37 H37            4.5092    -2.6174     0.4139 H       
  38 H38            2.7377    -2.5384     0.5681 H       
  39 H39            5.5425    -2.5952    -1.8467 H       
  40 H40            1.1472    -3.6640    -3.6936 H       
  41 H41            1.3120    -2.8874    -1.3402 H       
  42 H42            5.3113    -3.8884    -5.7523 H       
  43 H43            2.9718    -5.2177    -9.0748 H       
  44 H44            0.9253    -4.9983    -7.7292 H       
  45 H45            1.0561    -4.2333    -5.3964 H       
  46 H46            7.1964    -5.0702    -7.1996 H       
  47 H47            7.3589    -3.9153    -8.5442 H       
  48 H48            6.5544    -3.4181    -7.0362 H       
  49 H49            4.3191    -5.4580    -9.8715 H       
  50 H50            5.7948    -4.5737   -10.3284 H       
  51 H51            5.9158    -6.2075    -9.6326 H       
@<TRIPOS>BOND
   1    1    2 ar
   2    1    6 ar
   3    1   32 1
   4    2    3 ar
   5    2   33 1
   6    3    4 ar
   7    3   23 1
   8    4    5 ar
   9    4    7 1
  10    5    6 ar
  11    5   10 1
  12    6   34 1
  13    7    8 1
  14    7   15 1
  15    8    9 2
  16    8   35 1
  17    9   10 1
  18    9   12 1
  19   10   11 2
  20   12   13 1
  21   12   14 2
  22   13   36 1
  23   15   16 1
  24   15   37 1
  25   15   38 1
  26   16   17 ar
  27   16   21 ar
  28   17   18 ar
  29   17   39 1
  30   18   19 ar
  31   19   20 ar
  32   19   22 1
  33   20   21 ar
  34   20   40 1
  35   21   41 1
  36   22   24 ar
  37   22   28 ar
  38   24   25 ar
  39   24   42 1
  40   25   26 ar
  41   25   29 1
  42   26   27 ar
  43   26   43 1
  44   27   28 ar
  45   27   44 1
  46   28   45 1
  47   29   30 1
  48   29   31 1
  49   30   46 1
  50   30   47 1
  51   30   48 1
  52   31   49 1
  53   31   50 1
  54   31   51 1

#	End of record

