#	Name: ASD04590450
#	Creating user name:	WinNT
#	Creation time:	15. 06. 2019 20:50

#	Modifying user name:	WinNT
#	Modification time:	15. 06. 2019 20:50

#	Program:	/corina/corina34_cracker 3.40 0067  02.08.2006

@<TRIPOS>MOLECULE
ASD04590450
  46   50    0    0    0
SMALL
NO_CHARGES


@<TRIPOS>ATOM
   1 C1            -0.0169     1.3923     0.0097 C.ar    
   2 C2             0.0021    -0.0041     0.0020 C.ar    
   3 C3            -2.4013    -0.0379     0.0257 C.ar    
   4 C4            -2.4140     1.3672     0.0440 C.ar    
   5 C5            -1.2191     2.0735     0.0306 C.ar    
   6 N6            -3.6929    -0.4513     0.0451 N.2     
   7 C7            -4.4888     0.5899     0.0738 C.2     
   8 N8            -3.7458     1.7406     0.0743 N.pl3   
   9 C9            -5.9649     0.5312     0.1005 C.2     
  10 C10           -6.7501    -0.6448     0.1001 C.2     
  11 C11           -8.0528    -0.2719     0.1300 C.2     
  12 N12           -8.0971     1.0863     0.1487 N.pl3   
  13 N13           -6.7814     1.5661     0.1348 N.2     
  14 N14           -6.2666    -1.9632     0.0728 N.am    
  15 C15           -7.1303    -2.9979     0.0758 C.2     
  16 O16           -8.3292    -2.7898     0.1023 O.2     
  17 C17           -6.6250    -4.3759     0.0473 C.2     
  18 C18           -1.1778    -0.7174     0.0099 C.ar    
  19 C19           -7.3968    -5.5503     0.0466 C.2     
  20 O20            1.1915    -0.6643    -0.0138 O.3     
  21 C21            1.1408    -2.0924    -0.0209 C.3     
  22 O22            1.1536     2.0851     0.0022 O.3     
  23 C23            1.0634     3.5113     0.0108 C.3     
  24 N24           -6.5207    -6.6009     0.0143 N.pl3   
  25 N25           -5.2242    -6.0806    -0.0047 N.2     
  26 C26           -5.2783    -4.7720     0.0092 C.2     
  27 C27           -8.7747    -5.8051     0.0710 C.2     
  28 N28           -9.2063    -7.0463     0.0625 N.2     
  29 C29           -8.3547    -8.0706     0.0310 C.2     
  30 C30           -7.0168    -7.8711     0.0061 C.2     
  31 H31           -1.2289     3.1534     0.0368 H       
  32 H32           -4.0892     2.6476     0.0929 H       
  33 H33           -8.9044    -0.9361     0.1373 H       
  34 H34           -8.9006     1.6293     0.1710 H       
  35 H35           -5.3111    -2.1291     0.0517 H       
  36 H36           -1.1579    -1.7972     0.0036 H       
  37 H37            0.6236    -2.4420     0.8726 H       
  38 H38            0.6052    -2.4325    -0.9073 H       
  39 H39            2.1548    -2.4919    -0.0335 H       
  40 H40            2.0660     3.9388     0.0035 H       
  41 H41            0.5192     3.8462    -0.8723 H       
  42 H42            0.5362     3.8366     0.9076 H       
  43 H43           -4.4273    -4.1072    -0.0000 H       
  44 H44           -9.4780    -4.9859     0.0970 H       
  45 H45           -8.7399    -9.0796     0.0251 H       
  46 H46           -6.3437    -8.7153    -0.0197 H       
@<TRIPOS>BOND
   1    1    2 ar
   2    1   22 1
   3    1    5 ar
   4    2   18 ar
   5    2   20 1
   6    3    4 ar
   7    3    6 1
   8    3   18 ar
   9    4    5 ar
  10    4    8 1
  11    5   31 1
  12    6    7 2
  13    7    8 1
  14    7    9 1
  15    8   32 1
  16    9   10 1
  17    9   13 2
  18   10   11 2
  19   10   14 1
  20   11   12 1
  21   11   33 1
  22   12   13 1
  23   12   34 1
  24   14   15 am
  25   14   35 1
  26   15   16 2
  27   15   17 1
  28   17   19 2
  29   17   26 1
  30   18   36 1
  31   19   24 1
  32   19   27 1
  33   20   21 1
  34   21   37 1
  35   21   38 1
  36   21   39 1
  37   22   23 1
  38   23   40 1
  39   23   41 1
  40   23   42 1
  41   24   25 1
  42   24   30 1
  43   25   26 2
  44   26   43 1
  45   27   28 2
  46   27   44 1
  47   28   29 1
  48   29   30 2
  49   29   45 1
  50   30   46 1

#	End of record

