#	Name: ASD01813847
#	Creating user name:	WinNT
#	Creation time:	15. 06. 2019 19:31

#	Modifying user name:	WinNT
#	Modification time:	15. 06. 2019 19:31

#	Program:	/corina/corina34_cracker 3.40 0067  02.08.2006

@<TRIPOS>MOLECULE
ASD01813847
  49   52    0    0    0
SMALL
NO_CHARGES


@<TRIPOS>ATOM
   1 C1            -0.3095     0.9819     0.1377 C.2     
   2 C2            -0.1827    -0.4137     0.1305 C.2     
   3 C3             1.0600    -0.9748     0.0861 C.2     
   4 C4             2.1920    -0.1437     0.0484 C.2     
   5 N5             2.0388     1.2162     0.0568 N.am    
   6 C6             0.7918     1.7656     0.1010 C.2     
   7 C7             3.4702    -0.7179     0.0028 C.2     
   8 C8             4.5764     0.0805    -0.0337 C.2     
   9 C9             4.4151     1.4784    -0.0254 C.2     
  10 C10            3.1166     2.0255     0.0212 C.2     
  11 O11            2.9676     3.2358     0.0283 O.2     
  12 C12            5.5861     2.3573    -0.0635 C.2     
  13 O13            5.4247     3.6966    -0.0553 O.3     
  14 O14            6.7041     1.8796    -0.1025 O.2     
  15 C15            3.6226    -2.2171    -0.0054 C.3     
  16 N16            3.7442    -2.6894    -1.3911 N.3     
  17 C17            4.1299    -4.1068    -1.4324 C.3     
  18 C18            4.1682    -4.5801    -2.8874 C.3     
  19 N19            5.1215    -3.7556    -3.6431 N.3     
  20 C20            4.7358    -2.3381    -3.6017 C.3     
  21 C21            4.6975    -1.8649    -2.1467 C.3     
  22 C22            5.2367    -4.2030    -4.9558 C.ar    
  23 C23            6.4400    -4.7235    -5.4313 C.ar    
  24 C24            6.5126    -5.1566    -6.7387 C.ar    
  25 N25            5.4627    -5.0830    -7.5351 N.ar    
  26 C26            4.3067    -4.5969    -7.1228 C.ar    
  27 C27            4.1500    -4.1479    -5.8286 C.ar    
  28 N28            7.6226    -4.8094    -4.5455 N.pl3   
  29 O29            8.6391    -5.3536    -4.9380 O.2     
  30 O30            7.5792    -4.3360    -3.4241 O.2     
  31 H31           -1.2903     1.4331     0.1683 H       
  32 H32           -1.0619    -1.0402     0.1602 H       
  33 H33            1.1726    -2.0489     0.0804 H       
  34 H34            0.6823     2.8400     0.1072 H       
  35 H35            5.5639    -0.3555    -0.0681 H       
  36 H36            6.2271     4.2356    -0.0815 H       
  37 H37            4.5168    -2.4944     0.5528 H       
  38 H38            2.7484    -2.6737     0.4587 H       
  39 H39            5.1161    -4.2286    -0.9844 H       
  40 H40            3.4021    -4.6981    -0.8767 H       
  41 H41            4.4822    -5.6233    -2.9224 H       
  42 H42            3.1756    -4.4838    -3.3274 H       
  43 H43            5.4636    -1.7468    -4.1574 H       
  44 H44            3.7496    -2.2164    -4.0498 H       
  45 H45            4.3835    -0.8217    -2.1118 H       
  46 H46            5.6901    -1.9611    -1.7068 H       
  47 H47            7.4404    -5.5608    -7.1156 H       
  48 H48            3.4720    -4.5539    -7.8068 H       
  49 H49            3.2014    -3.7516    -5.4976 H       
@<TRIPOS>BOND
   1    1    2 1
   2    1    6 2
   3    1   31 1
   4    2    3 2
   5    2   32 1
   6    3    4 1
   7    3   33 1
   8    4    5 1
   9    4    7 2
  10    5    6 1
  11    5   10 am
  12    6   34 1
  13    7    8 1
  14    7   15 1
  15    8    9 2
  16    8   35 1
  17    9   10 1
  18    9   12 1
  19   10   11 2
  20   12   13 1
  21   12   14 2
  22   13   36 1
  23   15   16 1
  24   15   37 1
  25   15   38 1
  26   16   17 1
  27   16   21 1
  28   17   18 1
  29   17   39 1
  30   17   40 1
  31   18   19 1
  32   18   41 1
  33   18   42 1
  34   19   20 1
  35   19   22 1
  36   20   21 1
  37   20   43 1
  38   20   44 1
  39   21   45 1
  40   21   46 1
  41   22   23 ar
  42   22   27 ar
  43   23   24 ar
  44   23   28 1
  45   24   25 ar
  46   24   47 1
  47   25   26 ar
  48   26   27 ar
  49   26   48 1
  50   27   49 1
  51   28   29 2
  52   28   30 2

#	End of record

