#	Name: ASD01883686
#	Creating user name:	WinNT
#	Creation time:	15. 06. 2019 19:46

#	Modifying user name:	WinNT
#	Modification time:	15. 06. 2019 19:46

#	Program:	/corina/corina34_cracker 3.40 0067  02.08.2006

@<TRIPOS>MOLECULE
ASD01883686
  45   48    0    0    0
SMALL
NO_CHARGES


@<TRIPOS>ATOM
   1 C1            -0.3326     0.9595     0.4557 C.2     
   2 C2            -0.1907    -0.4344     0.4914 C.2     
   3 C3            -1.3387    -1.2345     0.6652 C.2     
   4 C4            -2.5582    -0.6787     0.7959 C.2     
   5 N5            -2.7418     0.6730     0.7666 N.pl3   
   6 C6            -1.6762     1.5217     0.6074 C.2     
   7 C7            -3.8603     1.4569     0.8755 C.2     
   8 C8            -3.4579     2.7417     0.7758 C.2     
   9 N9            -2.1309     2.7618     0.6146 N.2     
  10 C10           -5.2749     0.9751     1.0702 C.3     
  11 C11           -5.9715     0.8761    -0.2884 C.3     
  12 C12            1.1438    -1.0570     0.3484 C.ar    
  13 C13            1.7005    -1.7727     1.4094 C.ar    
  14 C14            2.9451    -2.3512     1.2694 C.ar    
  15 C15            3.6412    -2.2228     0.0806 C.ar    
  16 C16            3.0949    -1.5147    -0.9751 C.ar    
  17 C17            1.8487    -0.9361    -0.8500 C.ar    
  18 C18            5.0007    -2.8566    -0.0649 C.3     
  19 C19            4.9290    -3.9731    -1.0746 C.ar    
  20 C20            5.1020    -5.2834    -0.6697 C.ar    
  21 C21            5.0363    -6.3075    -1.5959 C.ar    
  22 C22            4.7970    -6.0212    -2.9270 C.ar    
  23 C23            4.6231    -4.7110    -3.3318 C.ar    
  24 C24            4.6845    -3.6873    -2.4049 C.ar    
  25 F25           -5.2792    -0.0267    -1.1027 F       
  26 F26           -7.2847     0.4288    -0.1077 F       
  27 F27           -5.9874     2.1355    -0.8972 F       
  28 F28            5.9198    -1.8948    -0.4977 F       
  29 C29            0.8057     1.8107     0.2817 C.1     
  30 N30            1.7088     2.4859     0.1436 N.1     
  31 H31           -1.2383    -2.3095     0.6935 H       
  32 H32           -3.4160    -1.3216     0.9275 H       
  33 H33           -4.1003     3.6086     0.8218 H       
  34 H34           -5.2625    -0.0062     1.5445 H       
  35 H35           -5.8143     1.6785     1.7046 H       
  36 H36            1.1585    -1.8730     2.3381 H       
  37 H37            3.3771    -2.9053     2.0897 H       
  38 H38            3.6434    -1.4181    -1.9004 H       
  39 H39            1.4233    -0.3836    -1.6748 H       
  40 H40            5.3198    -3.2570     0.8973 H       
  41 H41            5.2889    -5.5070     0.3702 H       
  42 H42            5.1722    -7.3311    -1.2796 H       
  43 H43            4.7464    -6.8213    -3.6507 H       
  44 H44            4.4365    -4.4873    -4.3717 H       
  45 H45            4.5486    -2.6636    -2.7211 H       
@<TRIPOS>BOND
   1    1    2 2
   2    1   29 1
   3    1    6 1
   4    2    3 1
   5    2   12 1
   6    3    4 2
   7    3   31 1
   8    4    5 1
   9    4   32 1
  10    5    6 1
  11    5    7 1
  12    6    9 2
  13    7    8 2
  14    7   10 1
  15    8    9 1
  16    8   33 1
  17   10   11 1
  18   10   34 1
  19   10   35 1
  20   11   25 1
  21   11   26 1
  22   11   27 1
  23   12   13 ar
  24   12   17 ar
  25   13   14 ar
  26   13   36 1
  27   14   15 ar
  28   14   37 1
  29   15   16 ar
  30   15   18 1
  31   16   17 ar
  32   16   38 1
  33   17   39 1
  34   18   19 1
  35   18   28 1
  36   18   40 1
  37   19   20 ar
  38   19   24 ar
  39   20   21 ar
  40   20   41 1
  41   21   22 ar
  42   21   42 1
  43   22   23 ar
  44   22   43 1
  45   23   24 ar
  46   23   44 1
  47   24   45 1
  48   29   30 3

#	End of record

