#	Name: ASD03331230
#	Creating user name:	WinNT
#	Creation time:	15. 06. 2019 20:38

#	Modifying user name:	WinNT
#	Modification time:	15. 06. 2019 20:38

#	Program:	/corina/corina34_cracker 3.40 0067  02.08.2006

@<TRIPOS>MOLECULE
ASD03331230
  54   57    0    0    0
SMALL
NO_CHARGES


@<TRIPOS>ATOM
   1 N1            -0.0458     1.4960     0.5714 N.am    
   2 C2             0.0023     0.1517     1.1663 C.3     
   3 C3             0.5962    -0.8153     0.1365 C.3     
   4 N4             1.8887    -0.2958    -0.3299 N.3     
   5 C5             1.7277     0.9894    -1.0228 C.3     
   6 C6             1.1802     2.0304    -0.0406 C.3     
   7 C7            -1.1847     2.2167     0.5818 C.2     
   8 O8            -2.2134     1.7218     1.0003 O.2     
   9 N9            -1.1831     3.4859     0.1284 N.am    
  10 C10           -2.3854     4.1964     0.0329 C.ar    
  11 C11           -2.4000     5.5654     0.2479 C.ar    
  12 C12           -3.6012     6.2692     0.1515 C.ar    
  13 C13           -4.7799     5.5891    -0.1607 C.ar    
  14 C14           -4.7542     4.2257    -0.3729 C.ar    
  15 C15           -3.5633     3.5298    -0.2830 C.ar    
  16 C16            2.5708    -1.2743    -1.1873 C.3     
  17 C17            3.7629    -0.6244    -1.8412 C.ar    
  18 C18            5.0060    -0.6566    -1.2136 C.ar    
  19 N19            6.0653    -0.1026    -1.7521 N.ar    
  20 C20            5.9992     0.5205    -2.9326 C.ar    
  21 C21            4.7648     0.5899    -3.6252 C.ar    
  22 C22            3.6267    -0.0081    -3.0527 C.ar    
  23 C23            4.7006     1.2465    -4.8649 C.ar    
  24 C24            7.1383     1.1133    -3.5052 C.ar    
  25 C25            7.0401     1.7412    -4.7084 C.ar    
  26 C26            5.8249     1.8089    -5.3873 C.ar    
  27 C27           -3.6255     7.7287     0.3797 C.2     
  28 O28           -4.7864     8.4057     0.2861 O.3     
  29 O29           -2.5989     8.3181     0.6516 O.2     
  30 C30           -4.7354     9.8374     0.5229 C.3     
  31 H31            0.6296     0.1680     2.0576 H       
  32 H32           -1.0057    -0.1682     1.4303 H       
  33 H33            0.7417    -1.7925     0.5969 H       
  34 H34           -0.0848    -0.9091    -0.7094 H       
  35 H35            2.6938     1.3210    -1.4033 H       
  36 H36            1.0309     0.8705    -1.8526 H       
  37 H37            0.9509     2.9526    -0.5745 H       
  38 H38            1.9206     2.2273     0.7347 H       
  39 H39           -0.3489     3.9069    -0.1318 H       
  40 H40           -1.4850     6.0857     0.4895 H       
  41 H41           -5.7118     6.1299    -0.2359 H       
  42 H42           -5.6670     3.7013    -0.6144 H       
  43 H43           -3.5489     2.4636    -0.4544 H       
  44 H44            2.9033    -2.1180    -0.5825 H       
  45 H45            1.8824    -1.6268    -1.9553 H       
  46 H46            5.0996    -1.1506    -0.2578 H       
  47 H47            2.6705     0.0259    -3.5537 H       
  48 H48            3.7648     1.3046    -5.4010 H       
  49 H49            8.0875     1.0708    -2.9918 H       
  50 H50            7.9179     2.1953    -5.1438 H       
  51 H51            5.7748     2.3128    -6.3412 H       
  52 H52           -4.3668    10.0260     1.5312 H       
  53 H53           -4.0662    10.3018    -0.2014 H       
  54 H54           -5.7349    10.2590     0.4166 H       
@<TRIPOS>BOND
   1    1    2 1
   2    1    6 1
   3    1    7 am
   4    2    3 1
   5    2   31 1
   6    2   32 1
   7    3    4 1
   8    3   33 1
   9    3   34 1
  10    4    5 1
  11    4   16 1
  12    5    6 1
  13    5   35 1
  14    5   36 1
  15    6   37 1
  16    6   38 1
  17    7    8 2
  18    7    9 am
  19    9   10 1
  20    9   39 1
  21   10   11 ar
  22   10   15 ar
  23   11   12 ar
  24   11   40 1
  25   12   13 ar
  26   12   27 1
  27   13   14 ar
  28   13   41 1
  29   14   15 ar
  30   14   42 1
  31   15   43 1
  32   16   17 1
  33   16   44 1
  34   16   45 1
  35   17   18 ar
  36   17   22 ar
  37   18   19 ar
  38   18   46 1
  39   19   20 ar
  40   20   21 ar
  41   20   24 ar
  42   21   22 ar
  43   21   23 ar
  44   22   47 1
  45   23   26 ar
  46   23   48 1
  47   24   25 ar
  48   24   49 1
  49   25   26 ar
  50   25   50 1
  51   26   51 1
  52   27   28 1
  53   27   29 2
  54   28   30 1
  55   30   52 1
  56   30   53 1
  57   30   54 1

#	End of record

