#	Name: ASD01913492
#	Creating user name:	WinNT
#	Creation time:	15. 06. 2019 20:01

#	Modifying user name:	WinNT
#	Modification time:	15. 06. 2019 20:01

#	Program:	/corina/corina34_cracker 3.40 0067  02.08.2006

@<TRIPOS>MOLECULE
ASD01913492
  37   39    0    0    0
SMALL
NO_CHARGES


@<TRIPOS>ATOM
   1 C1            -0.3510    -0.6974    -2.1196 C.ar    
   2 C2            -0.8051    -0.0327    -0.9849 C.ar    
   3 C3            -0.7849     1.3583    -0.9835 C.ar    
   4 N4            -0.3378     1.9950    -2.0534 N.ar    
   5 C5             0.0841     1.3292    -3.1095 C.ar    
   6 N6             0.0807     0.0119    -3.1493 N.ar    
   7 C7            -1.2385    -2.0819     0.0352 C.ar    
   8 C8            -0.0438    -2.7752     0.1699 C.ar    
   9 N9            -0.0172    -4.0923     0.1190 N.ar    
  10 C10           -1.1121    -4.8037    -0.0598 C.ar    
  11 C11           -2.3475    -4.1839    -0.2027 C.ar    
  12 C12           -2.4169    -2.7949    -0.1551 C.ar    
  13 N13           -3.5050    -4.9455    -0.3925 N.am    
  14 C14           -4.6708    -4.5475     0.1544 C.2     
  15 O15           -1.2571    -0.7244     0.0941 O.3     
  16 C16           -5.8699    -5.4114     0.0523 C.ar    
  17 O17           -4.7382    -3.4801     0.7314 O.2     
  18 C18           -7.0698    -4.9945     0.6190 C.ar    
  19 C19           -8.1877    -5.8183     0.5142 C.ar    
  20 C20           -8.0556    -7.0303    -0.1571 C.ar    
  21 C21           -6.8286    -7.3761    -0.6947 C.ar    
  22 N22           -5.7909    -6.5745    -0.5844 N.ar    
  23 O23           -9.3771    -5.4484     1.0539 O.3     
  24 C24          -10.4703    -6.3555     0.8983 C.3     
  25 H25           -0.3468    -1.7767    -2.1574 H       
  26 H26           -1.1295     1.9104    -0.1216 H       
  27 H27            0.4427     1.8788    -3.9673 H       
  28 H28            0.8759    -2.2287     0.3179 H       
  29 H29           -1.0483    -5.8812    -0.0961 H       
  30 H30           -3.3621    -2.2837    -0.2628 H       
  31 H31           -3.4689    -5.7601    -0.9179 H       
  32 H32           -7.1334    -4.0467     1.1328 H       
  33 H33           -8.9018    -7.6940    -0.2570 H       
  34 H34           -6.7220    -8.3158    -1.2163 H       
  35 H35          -11.3582    -5.9394     1.3743 H       
  36 H36          -10.6657    -6.5103    -0.1628 H       
  37 H37          -10.2208    -7.3085     1.3647 H       
@<TRIPOS>BOND
   1    1    2 ar
   2    1    6 ar
   3    1   25 1
   4    2    3 ar
   5    2   15 1
   6    3    4 ar
   7    3   26 1
   8    4    5 ar
   9    5    6 ar
  10    5   27 1
  11    7    8 ar
  12    7   12 ar
  13    7   15 1
  14    8    9 ar
  15    8   28 1
  16    9   10 ar
  17   10   11 ar
  18   10   29 1
  19   11   12 ar
  20   11   13 1
  21   12   30 1
  22   13   14 am
  23   13   31 1
  24   14   16 1
  25   14   17 2
  26   16   18 ar
  27   16   22 ar
  28   18   19 ar
  29   18   32 1
  30   19   20 ar
  31   19   23 1
  32   20   21 ar
  33   20   33 1
  34   21   22 ar
  35   21   34 1
  36   23   24 1
  37   24   35 1
  38   24   36 1
  39   24   37 1

#	End of record

