#	Name: ASD03090899
#	Creating user name:	WinNT
#	Creation time:	15. 06. 2019 20:29

#	Modifying user name:	WinNT
#	Modification time:	15. 06. 2019 20:29

#	Program:	/corina/corina34_cracker 3.40 0067  02.08.2006

@<TRIPOS>MOLECULE
ASD03090899
  59   62    0    0    0
SMALL
NO_CHARGES


@<TRIPOS>ATOM
   1 N1             0.0433     1.6471     0.0239 N.am    
   2 C2             0.0390     0.3031    -0.0762 C.2     
   3 O3            -1.0171    -0.2972    -0.1766 O.2     
   4 N4             1.1923    -0.3713    -0.0653 N.2     
   5 S5            -0.1869    -2.7248    -0.3137 S.3     
   6 C6             1.1880    -1.6987    -0.1642 C.2     
   7 N7             2.2661    -2.5227    -0.1684 N.pl3   
   8 C8             2.0210    -3.8573    -0.2810 C.2     
   9 C9             0.7508    -4.2271    -0.3760 C.2     
  10 O10            7.4147    -0.5269     0.2413 O.3     
  11 C11            8.4272    -1.4150     0.7269 C.3     
  12 C12            8.2802    -2.7566    -0.0038 C.3     
  13 O13            6.9739    -3.2749     0.2698 O.3     
  14 C14            5.9339    -2.4042     0.1563 C.ar    
  15 C15            6.1534    -1.0313     0.1440 C.ar    
  16 C16            4.6431    -2.8981     0.0517 C.ar    
  17 C17            3.5718    -2.0229    -0.0623 C.ar    
  18 C18            3.7938    -0.6528    -0.0716 C.ar    
  19 C19            5.0804    -0.1599     0.0313 C.ar    
  20 F20            8.4320    -2.5629    -1.3810 F       
  21 F21            9.2498    -3.6536     0.4570 F       
  22 F22            9.6917    -0.8742     0.4706 F       
  23 F23            8.2657    -1.6072     2.1032 F       
  24 C24            0.2171    -5.6301    -0.5094 C.3     
  25 C25            1.3126     2.3685     0.1446 C.3     
  26 C26           -1.2209     2.3870     0.0059 C.3     
  27 C27           -1.3161     3.2646     1.2556 C.3     
  28 C28           -1.2768     3.2563    -1.2238 C.ar    
  29 C29           -0.2901     4.1986    -1.4483 C.ar    
  30 C30           -0.3390     4.9967    -2.5749 C.ar    
  31 C31           -1.3792     4.8521    -3.4813 C.ar    
  32 C32           -2.3680     3.9060    -3.2538 C.ar    
  33 C33           -2.3115     3.1065    -2.1286 C.ar    
  34 O34           -1.4298     5.6364    -4.5900 O.3     
  35 C35           -2.5296     5.4323    -5.4794 C.3     
  36 C36           -2.4167     6.3987    -6.6602 C.3     
  37 H37            2.8229    -4.5806    -0.2924 H       
  38 H38            4.4708    -3.9643     0.0596 H       
  39 H39            2.9603     0.0284    -0.1592 H       
  40 H40            5.2509     0.9065     0.0242 H       
  41 H41           -0.8711    -5.6011    -0.5658 H       
  42 H42            0.6158    -6.0859    -1.4157 H       
  43 H43            0.5205    -6.2181     0.3568 H       
  44 H44            1.6842     2.6189    -0.8491 H       
  45 H45            1.1574     3.2839     0.7157 H       
  46 H46            2.0407     1.7396     0.6569 H       
  47 H47           -2.0535     1.6836    -0.0083 H       
  48 H48           -1.2757     2.6359     2.1450 H       
  49 H49           -0.4835     3.9681     1.2698 H       
  50 H50           -2.2567     3.8152     1.2422 H       
  51 H51            0.5194     4.3109    -0.7422 H       
  52 H52            0.4318     5.7327    -2.7496 H       
  53 H53           -3.1789     3.7916    -3.9579 H       
  54 H54           -3.0785     2.3665    -1.9534 H       
  55 H55           -2.5141     4.4063    -5.8469 H       
  56 H56           -3.4643     5.6143    -4.9490 H       
  57 H57           -2.4321     7.4248    -6.2927 H       
  58 H58           -1.4819     6.2167    -7.1905 H       
  59 H59           -3.2555     6.2431    -7.3385 H       
@<TRIPOS>BOND
   1    1    2 am
   2    1   25 1
   3    1   26 1
   4    2    3 2
   5    2    4 1
   6    4    6 2
   7    5    6 1
   8    5    9 1
   9    6    7 1
  10    7    8 1
  11    7   17 1
  12    8    9 2
  13    8   37 1
  14    9   24 1
  15   10   11 1
  16   10   15 1
  17   11   12 1
  18   11   22 1
  19   11   23 1
  20   12   13 1
  21   12   20 1
  22   12   21 1
  23   13   14 1
  24   14   15 ar
  25   14   16 ar
  26   15   19 ar
  27   16   17 ar
  28   16   38 1
  29   17   18 ar
  30   18   19 ar
  31   18   39 1
  32   19   40 1
  33   24   41 1
  34   24   42 1
  35   24   43 1
  36   25   44 1
  37   25   45 1
  38   25   46 1
  39   26   27 1
  40   26   28 1
  41   26   47 1
  42   27   48 1
  43   27   49 1
  44   27   50 1
  45   28   29 ar
  46   28   33 ar
  47   29   30 ar
  48   29   51 1
  49   30   31 ar
  50   30   52 1
  51   31   32 ar
  52   31   34 1
  53   32   33 ar
  54   32   53 1
  55   33   54 1
  56   34   35 1
  57   35   36 1
  58   35   55 1
  59   35   56 1
  60   36   57 1
  61   36   58 1
  62   36   59 1

#	End of record

