#	Name: ASD01042001
#	Creating user name:	WinNT
#	Creation time:	15. 06. 2019 18:58

#	Modifying user name:	WinNT
#	Modification time:	15. 06. 2019 18:58

#	Program:	/corina/corina34_cracker 3.40 0067  02.08.2006

@<TRIPOS>MOLECULE
ASD01042001
  98   99    0    0    0
SMALL
NO_CHARGES


@<TRIPOS>ATOM
   1 C1             1.2560    -0.6415    -0.1450 C.3     
   2 C2            -0.1158    -0.1145     0.2932 C.3     
   3 C3            -0.1140     1.4103     0.1665 C.3     
   4 C4             1.1001     1.9831     0.8381 C.2     
   5 C5             2.1693     1.2709     1.1524 C.2     
   6 C6             2.2981    -0.2004     0.8848 C.3     
   7 O7            -1.1322    -0.6647    -0.5471 O.3     
   8 C8             2.0828    -0.9737     2.1874 C.3     
   9 C9             3.6995    -0.4975     0.3476 C.3     
  10 C10            1.1011     3.4525     1.1724 C.3     
  11 C11            3.8272     3.0127     1.1790 C.2     
  12 C12            3.2551     1.9347     1.7770 C.2     
  13 C13            4.8286     3.7383     1.8477 C.2     
  14 C14            5.2677     3.3207     3.2275 C.3     
  15 C15            5.4032     4.8210     1.2471 C.2     
  16 C16            6.4017     5.5444     1.9138 C.2     
  17 C17            6.9814     6.6366     1.3079 C.2     
  18 C18            7.9787     7.3592     1.9738 C.2     
  19 C19            8.4178     6.9416     3.3536 C.3     
  20 C20            8.5588     8.4522     1.3675 C.2     
  21 C21            9.5557     9.1745     2.0331 C.2     
  22 C22           10.1358    10.2675     1.4269 C.2     
  23 C23           11.1331    10.9901     2.0927 C.2     
  24 C24           11.7128    12.0823     1.4869 C.2     
  25 C25           12.7113    12.8057     2.1536 C.2     
  26 C26           11.2737    12.4999     0.1071 C.3     
  27 C27           13.2859    13.8884     1.5530 C.2     
  28 C28           14.2873    14.6140     2.2216 C.2     
  29 C29           14.8594    15.6920     1.6236 C.2     
  30 C30           15.8693    16.4236     2.2979 C.2     
  31 C31           14.4203    16.1096     0.2438 C.3     
  32 C32           16.4319    17.4838     1.7098 C.2     
  33 C33           17.5054    18.2616     2.4265 C.3     
  34 C34           18.7933    18.2279     1.6007 C.3     
  35 C35           19.7848    19.2289     2.2071 C.3     
  36 C36           19.2381    20.6420     1.9926 C.3     
  37 C37           17.8050    20.7140     2.4319 C.2     
  38 C38           17.0501    19.6788     2.6164 C.2     
  39 C39           15.6252    19.9114     3.0483 C.3     
  40 O40           20.0139    21.5705     2.7529 O.3     
  41 C41           19.3933    16.8210     1.6409 C.3     
  42 C42           18.4868    18.6198     0.1538 C.3     
  43 H43            1.2305    -1.7300    -0.1970 H       
  44 H44            1.5107    -0.2314    -1.1223 H       
  45 H45           -0.3019    -0.3955     1.3297 H       
  46 H46           -0.1072     1.6853    -0.8882 H       
  47 H47           -1.0110     1.8130     0.6371 H       
  48 H48           -2.0269    -0.3725    -0.3252 H       
  49 H49            1.0874    -0.7599     2.5765 H       
  50 H50            2.1760    -2.0425     1.9951 H       
  51 H51            2.8318    -0.6694     2.9185 H       
  52 H52            4.4444    -0.1451     1.0611 H       
  53 H53            3.8135    -1.5720     0.2042 H       
  54 H54            3.8391     0.0130    -0.6053 H       
  55 H55            0.1289     3.8812     0.9288 H       
  56 H56            1.2994     3.5829     2.2362 H       
  57 H57            1.8755     3.9562     0.5940 H       
  58 H58            3.5125     3.3120     0.1902 H       
  59 H59            3.6276     1.5837     2.7280 H       
  60 H60            6.0907     2.6105     3.1474 H       
  61 H61            5.5974     4.1975     3.7848 H       
  62 H62            4.4327     2.8520     3.7482 H       
  63 H63            5.0885     5.1203     0.2582 H       
  64 H64            6.7164     5.2451     2.9026 H       
  65 H65            6.6667     6.9359     0.3191 H       
  66 H66            9.2408     6.2314     3.2736 H       
  67 H67            8.7474     7.8184     3.9109 H       
  68 H68            7.5828     6.4729     3.8743 H       
  69 H69            8.2441     8.7515     0.3787 H       
  70 H70            9.8704     8.8752     3.0220 H       
  71 H71            9.8211    10.5668     0.4380 H       
  72 H72           11.4478    10.6908     3.0816 H       
  73 H73           13.0260    12.5064     3.1424 H       
  74 H74           10.4507    13.2101     0.1871 H       
  75 H75           12.1087    12.9686    -0.4136 H       
  76 H76           10.9440    11.6230    -0.4502 H       
  77 H77           12.9712    14.1877     0.5642 H       
  78 H78           14.6020    14.3147     3.2104 H       
  79 H79           16.1840    16.1243     3.2867 H       
  80 H80           13.5973    16.8198     0.3239 H       
  81 H81           15.2554    16.5783    -0.2769 H       
  82 H82           14.0907    15.2327    -0.3135 H       
  83 H83           16.1172    17.7831     0.7210 H       
  84 H84           17.6893    17.8096     3.4012 H       
  85 H85           19.8934    19.0362     3.2744 H       
  86 H86           20.7519    19.1313     1.7138 H       
  87 H87           19.3053    20.8987     0.9354 H       
  88 H88           17.3770    21.6903     2.6053 H       
  89 H89           15.4444    20.9821     3.1430 H       
  90 H90           14.9472    19.4927     2.3046 H       
  91 H91           15.4534    19.4275     4.0098 H       
  92 H92           19.7245    22.4890     2.6657 H       
  93 H93           18.6792    16.1094     1.2266 H       
  94 H94           20.3103    16.8002     1.0520 H       
  95 H95           19.6181    16.5512     2.6728 H       
  96 H96           18.0685    19.6260     0.1308 H       
  97 H97           19.4058    18.5949    -0.4317 H       
  98 H98           17.7679    17.9176    -0.2683 H       
@<TRIPOS>BOND
   1    1    2 1
   2    1    6 1
   3    1   43 1
   4    1   44 1
   5    2    3 1
   6    2    7 1
   7    2   45 1
   8    3    4 1
   9    3   46 1
  10    3   47 1
  11    4    5 2
  12    4   10 1
  13    5    6 1
  14    5   12 1
  15    6    8 1
  16    6    9 1
  17    7   48 1
  18    8   49 1
  19    8   50 1
  20    8   51 1
  21    9   52 1
  22    9   53 1
  23    9   54 1
  24   10   55 1
  25   10   56 1
  26   10   57 1
  27   11   12 2
  28   11   13 1
  29   11   58 1
  30   12   59 1
  31   13   14 1
  32   13   15 2
  33   14   60 1
  34   14   61 1
  35   14   62 1
  36   15   16 1
  37   15   63 1
  38   16   17 2
  39   16   64 1
  40   17   18 1
  41   17   65 1
  42   18   19 1
  43   18   20 2
  44   19   66 1
  45   19   67 1
  46   19   68 1
  47   20   21 1
  48   20   69 1
  49   21   22 2
  50   21   70 1
  51   22   23 1
  52   22   71 1
  53   23   24 2
  54   23   72 1
  55   24   25 1
  56   24   26 1
  57   25   27 2
  58   25   73 1
  59   26   74 1
  60   26   75 1
  61   26   76 1
  62   27   28 1
  63   27   77 1
  64   28   29 2
  65   28   78 1
  66   29   30 1
  67   29   31 1
  68   30   32 2
  69   30   79 1
  70   31   80 1
  71   31   81 1
  72   31   82 1
  73   32   33 1
  74   32   83 1
  75   33   34 1
  76   33   38 1
  77   33   84 1
  78   34   35 1
  79   34   41 1
  80   34   42 1
  81   35   36 1
  82   35   85 1
  83   35   86 1
  84   36   37 1
  85   36   40 1
  86   36   87 1
  87   37   38 2
  88   37   88 1
  89   38   39 1
  90   39   89 1
  91   39   90 1
  92   39   91 1
  93   40   92 1
  94   41   93 1
  95   41   94 1
  96   41   95 1
  97   42   96 1
  98   42   97 1
  99   42   98 1

#	End of record

