#	Name: ASD09740271
#	Creating user name:	WinNT
#	Creation time:	15. 06. 2019 21:23

#	Modifying user name:	WinNT
#	Modification time:	15. 06. 2019 21:23

#	Program:	/corina/corina34_cracker 3.40 0067  02.08.2006

@<TRIPOS>MOLECULE
ASD09740271
  30   32    0    0    0
SMALL
NO_CHARGES


@<TRIPOS>ATOM
   1 N1            -0.0144     1.2085     0.0087 N.2     
   2 O2             0.0021    -0.0041     0.0020 O.3     
   3 C3             1.2061     1.6798    -0.0004 C.2     
   4 N4             2.0457     0.6235    -0.0141 N.2     
   5 C5             1.2698    -0.4440    -0.0125 C.2     
   6 C6             1.7125    -1.8545    -0.0238 C.ar    
   7 C7             1.5955     3.1123     0.0028 C.ar    
   8 C8             0.7709    -2.8845    -0.0204 C.ar    
   9 C9             1.1901    -4.1991    -0.0316 C.ar    
  10 C10            2.5406    -4.4976    -0.0456 C.ar    
  11 C11            3.4805    -3.4807    -0.0486 C.ar    
  12 C12            3.0739    -2.1616    -0.0438 C.ar    
  13 C13            0.6160     4.1029     0.0172 C.ar    
  14 C14            0.9836     5.4333     0.0201 C.ar    
  15 C15            2.3216     5.7838     0.0087 C.ar    
  16 C16            3.2981     4.8043    -0.0060 C.ar    
  17 C17            2.9417     3.4708    -0.0028 C.ar    
  18 Br18           5.3243    -3.8999    -0.0672 Br      
  19 C19            0.1742    -5.3122    -0.0279 C.3     
  20 F20           -0.1527    -5.6494    -1.3457 F       
  21 F21            0.7098    -6.4302     0.6205 F       
  22 F22           -0.9775    -4.8902     0.6449 F       
  23 H23           -0.2840    -2.6531    -0.0087 H       
  24 H24            2.8635    -5.5282    -0.0539 H       
  25 H25            3.8076    -1.3691    -0.0465 H       
  26 H26           -0.4290     3.8304     0.0257 H       
  27 H27            0.2251     6.2021     0.0309 H       
  28 H28            2.6048     6.8259     0.0111 H       
  29 H29            4.3414     5.0834    -0.0156 H       
  30 H30            3.7050     2.7068    -0.0143 H       
@<TRIPOS>BOND
   1    1    2 1
   2    1    3 2
   3    2    5 1
   4    3    4 1
   5    3    7 1
   6    4    5 2
   7    5    6 1
   8    6    8 ar
   9    6   12 ar
  10    7   13 ar
  11    7   17 ar
  12    8    9 ar
  13    8   23 1
  14    9   10 ar
  15    9   19 1
  16   10   11 ar
  17   10   24 1
  18   11   12 ar
  19   11   18 1
  20   12   25 1
  21   13   14 ar
  22   13   26 1
  23   14   15 ar
  24   14   27 1
  25   15   16 ar
  26   15   28 1
  27   16   17 ar
  28   16   29 1
  29   17   30 1
  30   19   20 1
  31   19   21 1
  32   19   22 1

#	End of record

