#	Name: ASD03240833
#	Creating user name:	WinNT
#	Creation time:	15. 06. 2019 20:35

#	Modifying user name:	WinNT
#	Modification time:	15. 06. 2019 20:35

#	Program:	/corina/corina34_cracker 3.40 0067  02.08.2006

@<TRIPOS>MOLECULE
ASD03240833
  60   66    0    0    0
SMALL
NO_CHARGES


@<TRIPOS>ATOM
   1 O1            -0.0161     1.3337    -0.0016 O.3     
   2 C2             0.0020    -0.0040    -0.0126 C.2     
   3 N3             1.2348    -0.5293    -0.0126 N.am    
   4 C4             2.2183     0.5645    -0.0001 C.3     
   5 C5             1.3508     1.8380     0.0074 C.3     
   6 O6            -1.0071    -0.6807    -0.0218 O.2     
   7 C7             1.5367    -1.8933    -0.0221 C.ar    
   8 C8             0.5157    -2.8307     0.0879 C.ar    
   9 C9             0.8103    -4.1765     0.0784 C.ar    
  10 C10            2.1355    -4.5987    -0.0418 C.ar    
  11 C11            3.1584    -3.6552    -0.1521 C.ar    
  12 C12            2.8571    -2.3108    -0.1473 C.ar    
  13 N13            1.2391    -9.0318     1.4976 N.pl3   
  14 C14            1.5201   -10.3706     1.5022 C.2     
  15 N15            2.5122   -10.8937     0.7663 N.2     
  16 C16            3.2722   -10.1539    -0.0017 C.2     
  17 C17            3.0331    -8.7142    -0.0594 C.ar    
  18 C18            3.8111    -7.8703    -0.8603 C.ar    
  19 C19            3.5154    -6.5117    -0.8538 C.ar    
  20 C20            2.4552    -6.0433    -0.0519 C.ar    
  21 N21            1.7399    -6.8731     0.6935 N.ar    
  22 C22            1.9876    -8.1711     0.7176 C.ar    
  23 C23            0.6039   -10.9694     2.3756 C.2     
  24 C24           -0.2170    -9.9521     2.8798 C.2     
  25 N25            0.1630    -8.8105     2.3651 N.2     
  26 C26            1.5598   -13.0477     3.3797 C.ar    
  27 C27            0.5181   -12.4114     2.7049 C.ar    
  28 C28           -0.6089   -13.1569     2.3447 C.ar    
  29 C29           -0.6403   -14.5005     2.6759 C.ar    
  30 C30            0.4335   -15.0576     3.3461 C.ar    
  31 N31            1.4840   -14.3294     3.6727 N.ar    
  32 C32            4.3044    -5.5678    -1.6811 C.ar    
  33 C33            5.6973    -5.5864    -1.6276 C.ar    
  34 C34            6.4266    -4.7057    -2.4003 C.ar    
  35 C35            5.7780    -3.8054    -3.2264 C.ar    
  36 C36            4.3961    -3.7821    -3.2832 C.ar    
  37 C37            3.6565    -4.6622    -2.5197 C.ar    
  38 C38           -1.3477   -10.1407     3.8581 C.3     
  39 H39            2.8341     0.5154     0.8980 H       
  40 H40            2.8404     0.5302    -0.8944 H       
  41 H41            1.5431     2.4365    -0.8830 H       
  42 H42            1.5368     2.4217     0.9089 H       
  43 H43           -0.5093    -2.5034     0.1813 H       
  44 H44            0.0169    -4.9042     0.1642 H       
  45 H45            4.1846    -3.9788    -0.2449 H       
  46 H46            3.6476    -1.5804    -0.2367 H       
  47 H47            4.0644   -10.6016    -0.5834 H       
  48 H48            4.6168    -8.2619    -1.4635 H       
  49 H49            2.4382   -12.4855     3.6602 H       
  50 H50           -1.4339   -12.6960     1.8218 H       
  51 H51           -1.4945   -15.1073     2.4141 H       
  52 H52            0.4120   -16.1057     3.6058 H       
  53 H53            6.2047    -6.2884    -0.9825 H       
  54 H54            7.5057    -4.7192    -2.3598 H       
  55 H55            6.3528    -3.1179    -3.8291 H       
  56 H56            3.8951    -3.0768    -3.9297 H       
  57 H57            2.5777    -4.6461    -2.5682 H       
  58 H58           -0.9675   -10.0468     4.8753 H       
  59 H59           -2.1097    -9.3812     3.6834 H       
  60 H60           -1.7836   -11.1306     3.7230 H       
@<TRIPOS>BOND
   1    1    2 1
   2    1    5 1
   3    2    3 am
   4    2    6 2
   5    3    4 1
   6    3    7 1
   7    4    5 1
   8    4   39 1
   9    4   40 1
  10    5   41 1
  11    5   42 1
  12    7    8 ar
  13    7   12 ar
  14    8    9 ar
  15    8   43 1
  16    9   10 ar
  17    9   44 1
  18   10   11 ar
  19   10   20 1
  20   11   12 ar
  21   11   45 1
  22   12   46 1
  23   13   14 1
  24   13   22 1
  25   13   25 1
  26   14   15 1
  27   14   23 2
  28   15   16 2
  29   16   17 1
  30   16   47 1
  31   17   18 ar
  32   17   22 ar
  33   18   19 ar
  34   18   48 1
  35   19   20 ar
  36   19   32 1
  37   20   21 ar
  38   21   22 ar
  39   23   24 1
  40   23   27 1
  41   24   25 2
  42   24   38 1
  43   26   27 ar
  44   26   31 ar
  45   26   49 1
  46   27   28 ar
  47   28   29 ar
  48   28   50 1
  49   29   30 ar
  50   29   51 1
  51   30   31 ar
  52   30   52 1
  53   32   33 ar
  54   32   37 ar
  55   33   34 ar
  56   33   53 1
  57   34   35 ar
  58   34   54 1
  59   35   36 ar
  60   35   55 1
  61   36   37 ar
  62   36   56 1
  63   37   57 1
  64   38   58 1
  65   38   59 1
  66   38   60 1

#	End of record

