#	Name: ASD00431437
#	Creating user name:	WinNT
#	Creation time:	15. 06. 2019 18:35

#	Modifying user name:	WinNT
#	Modification time:	15. 06. 2019 18:35

#	Program:	/corina/corina34_cracker 3.40 0067  02.08.2006

@<TRIPOS>MOLECULE
ASD00431437
  41   43    0    0    0
SMALL
NO_CHARGES


@<TRIPOS>ATOM
   1 C1            -0.0400     1.6278    -0.0439 C.3     
   2 C2             0.0114     0.1021    -0.1463 C.3     
   3 O3             2.1664     2.2803    -1.1187 O.3     
   4 N4             3.2287     2.7666    -0.7932 N.2     
   5 C5             3.2280     3.0284     0.4914 C.2     
   6 N6             2.0207     2.6498     0.9739 N.2     
   7 C7             1.3623     2.1796    -0.0554 C.2     
   8 S8             4.3226     3.9697     2.9935 S.3     
   9 C9             5.9167     4.5789     2.8940 C.2     
  10 N10            6.3525     4.5030     1.6739 N.2     
  11 C11            5.5356     3.9980     0.7763 C.2     
  12 C12            4.3349     3.6234     1.2661 C.2     
  13 O13            6.6236     5.0711     3.9388 O.3     
  14 C14            8.6589     6.0339     4.7183 C.ar    
  15 C15            7.9309     5.3842     3.7343 C.ar    
  16 C16            8.5548     5.0556     2.5339 C.ar    
  17 C17            9.8868     5.3931     2.3695 C.ar    
  18 C18           10.5523     6.0437     3.3999 C.ar    
  19 N19            9.9279     6.3404     4.5271 N.ar    
  20 O20           11.8591     6.3786     3.2486 O.3     
  21 C21           12.4888     7.0464     4.3439 C.3     
  22 C22           13.1040     6.0106     5.2871 C.3     
  23 C23           13.5875     7.9702     3.8144 C.3     
  24 N24           -0.7891     2.1703    -1.1851 N.3     
  25 H25           -0.5350     1.9131     0.8844 H       
  26 H26            0.5065    -0.1832    -1.0746 H       
  27 H27            0.5673    -0.3004     0.7005 H       
  28 H28           -1.0028    -0.2970    -0.1380 H       
  29 H29            5.8025     3.8921    -0.2649 H       
  30 H30            8.1810     6.2962     5.6505 H       
  31 H31            8.0121     4.5488     1.7496 H       
  32 H32           10.4023     5.1531     1.4513 H       
  33 H33           11.7480     7.6355     4.8846 H       
  34 H34           12.3212     5.3525     5.6642 H       
  35 H35           13.8447     5.4215     4.7464 H       
  36 H36           13.5843     6.5200     6.1225 H       
  37 H37           13.1492     8.7081     3.1425 H       
  38 H38           14.0677     8.4796     4.6499 H       
  39 H39           14.3282     7.3811     3.2737 H       
  40 H40           -0.3157     1.9744    -2.0544 H       
  41 H41           -1.7334     1.8150    -1.1996 H       
@<TRIPOS>BOND
   1    1    2 1
   2    1    7 1
   3    1   24 1
   4    1   25 1
   5    2   26 1
   6    2   27 1
   7    2   28 1
   8    3    4 1
   9    3    7 1
  10    4    5 2
  11    5    6 1
  12    5   12 1
  13    6    7 2
  14    8    9 1
  15    8   12 1
  16    9   10 2
  17    9   13 1
  18   10   11 1
  19   11   12 2
  20   11   29 1
  21   13   15 1
  22   14   15 ar
  23   14   19 ar
  24   14   30 1
  25   15   16 ar
  26   16   17 ar
  27   16   31 1
  28   17   18 ar
  29   17   32 1
  30   18   19 ar
  31   18   20 1
  32   20   21 1
  33   21   22 1
  34   21   23 1
  35   21   33 1
  36   22   34 1
  37   22   35 1
  38   22   36 1
  39   23   37 1
  40   23   38 1
  41   23   39 1
  42   24   40 1
  43   24   41 1

#	End of record

