#	Name: ASD01141029
#	Creating user name:	WinNT
#	Creation time:	15. 06. 2019 19:01

#	Modifying user name:	WinNT
#	Modification time:	15. 06. 2019 19:01

#	Program:	/corina/corina34_cracker 3.40 0067  02.08.2006

@<TRIPOS>MOLECULE
ASD01141029
  49   51    0    0    0
SMALL
NO_CHARGES


@<TRIPOS>ATOM
   1 C1             0.2182     1.9098    -0.8663 C.ar    
   2 C2             0.8130     1.1581     0.1422 C.ar    
   3 C3             0.8918     2.1112    -2.0671 C.ar    
   4 N4            -1.0594     2.4583    -0.6752 N.am    
   5 C5             2.0729     0.6135    -0.0535 C.ar    
   6 C6             2.1513     1.5626    -2.2532 C.ar    
   7 O7             0.3154     2.8445    -3.0565 O.3     
   8 C8            -1.2413     3.4454     0.2242 C.2     
   9 C9             2.7381     0.8164    -1.2482 C.ar    
  10 C10           -2.5790     4.1312     0.3299 C.3     
  11 O11           -0.3283     3.7817     0.9486 O.2     
  12 N12           -2.4034     5.4555     0.9410 N.3     
  13 H13           -3.0089     4.2445    -0.6653 H       
  14 C14            1.0648     3.0100    -4.2619 C.3     
  15 O15            0.1599     0.9582     1.3180 O.3     
  16 C16            0.8310     0.1764     2.3081 C.3     
  17 C17           -1.4312     6.2607     0.1845 C.3     
  18 C18           -1.5590     7.7184     0.6277 C.3     
  19 C19           -1.5108     7.8050     2.1316 C.ar    
  20 C20           -1.7117     6.6975     2.9269 C.ar    
  21 C21           -1.9836     5.3368     2.3409 C.3     
  22 C22           -1.2577     9.0373     2.7154 C.ar    
  23 C23           -1.2074     9.1610     4.0892 C.ar    
  24 C24           -1.4112     8.0507     4.8876 C.ar    
  25 C25           -1.6630     6.8240     4.3077 C.ar    
  26 C26           -3.5166     3.2894     1.1978 C.3     
  27 H27           -1.8114     2.1269    -1.1905 H       
  28 H28            2.5356     0.0302     0.7289 H       
  29 H29            2.6749     1.7183    -3.1849 H       
  30 H30            3.7196     0.3909    -1.3968 H       
  31 H31            1.2668     2.0331    -4.7012 H       
  32 H32            0.4918     3.6135    -4.9660 H       
  33 H33            2.0073     3.5097    -4.0381 H       
  34 H34            0.2017     0.0945     3.1944 H       
  35 H35            1.0308    -0.8189     1.9112 H       
  36 H36            1.7724     0.6572     2.5741 H       
  37 H37           -0.4219     5.9031     0.3885 H       
  38 H38           -1.6419     6.1824    -0.8821 H       
  39 H39           -0.7385     8.2983     0.2053 H       
  40 H40           -2.5067     8.1229     0.2721 H       
  41 H41           -2.7726     4.8490     2.9134 H       
  42 H42           -1.0775     4.7334     2.3956 H       
  43 H43           -1.0989     9.9046     2.0918 H       
  44 H44           -1.0090    10.1225     4.5393 H       
  45 H45           -1.3733     8.1433     5.9630 H       
  46 H46           -1.8223     5.9574     4.9322 H       
  47 H47           -3.0867     3.1762     2.1930 H       
  48 H48           -4.4841     3.7855     1.2742 H       
  49 H49           -3.6469     2.3068     0.7444 H       
@<TRIPOS>BOND
   1    1    2 ar
   2    1    3 ar
   3    1    4 1
   4    2    5 ar
   5    2   15 1
   6    3    6 ar
   7    3    7 1
   8    4    8 am
   9    4   27 1
  10    5    9 ar
  11    5   28 1
  12    6    9 ar
  13    6   29 1
  14    7   14 1
  15    8   10 1
  16    8   11 2
  17    9   30 1
  18   10   13 1
  19   10   26 1
  20   10   12 1
  21   12   17 1
  22   12   21 1
  23   14   31 1
  24   14   32 1
  25   14   33 1
  26   15   16 1
  27   16   34 1
  28   16   35 1
  29   16   36 1
  30   17   18 1
  31   17   37 1
  32   17   38 1
  33   18   19 1
  34   18   39 1
  35   18   40 1
  36   19   20 ar
  37   19   22 ar
  38   20   21 1
  39   20   25 ar
  40   21   41 1
  41   21   42 1
  42   22   23 ar
  43   22   43 1
  44   23   24 ar
  45   23   44 1
  46   24   25 ar
  47   24   45 1
  48   25   46 1
  49   26   47 1
  50   26   48 1
  51   26   49 1

#	End of record

