#	Name: ASD01948062
#	Creating user name:	WinNT
#	Creation time:	15. 06. 2019 20:13

#	Modifying user name:	WinNT
#	Modification time:	15. 06. 2019 20:13

#	Program:	/corina/corina34_cracker 3.40 0067  02.08.2006

@<TRIPOS>MOLECULE
ASD01948062
  48   51    0    0    0
SMALL
NO_CHARGES


@<TRIPOS>ATOM
   1 C1            -0.2404     1.5050    -2.0870 C.3     
   2 C2            -0.4404    -0.0195    -2.1135 C.3     
   3 C3            -0.8156     0.1345    -3.5969 C.3     
   4 C4            -1.2313     1.5765    -3.2608 C.3     
   5 S5            -0.8517     2.2919    -0.5712 S.o2    
   6 O6            -2.2724     2.2818    -0.5421 O.2     
   7 O7            -0.0929     1.8663     0.5524 O.2     
   8 N8            -0.4582     3.8907    -0.7479 N.am    
   9 C9             1.8841     3.3353    -0.7312 C.2     
  10 C10            0.8950     4.2805    -0.8128 C.2     
  11 C11            1.2278     5.6374    -0.9616 C.2     
  12 C12            2.5670     6.0026    -1.0204 C.2     
  13 C13            3.5421     5.0110    -0.9361 C.2     
  14 N14            3.1937     3.7182    -0.8048 N.am    
  15 O15            1.7650     1.9907    -0.5714 O.3     
  16 C16            4.0274     2.5021    -0.7222 C.3     
  17 C17            2.9994     1.3778    -0.9838 C.3     
  18 O18            4.7243     5.3183    -0.9822 O.2     
  19 C19            2.9591     7.4497    -1.1736 C.3     
  20 N20            0.2329     6.5993    -1.0491 N.pl3   
  21 C21           -0.6940     6.5537    -2.0962 C.ar    
  22 C22           -1.7668     7.4394    -2.1167 C.ar    
  23 C23           -2.6804     7.3911    -3.1531 C.ar    
  24 C24           -2.5279     6.4632    -4.1683 C.ar    
  25 C25           -1.4625     5.5818    -4.1495 C.ar    
  26 C26           -0.5422     5.6287    -3.1198 C.ar    
  27 I27           -3.9147     6.3933    -5.7371 I       
  28 F28           -1.9157     8.3449    -1.1252 F       
  29 O29            0.3034     0.0529    -4.4819 O.3     
  30 H30            0.7704     1.8174    -2.3493 H       
  31 H31            0.4783    -0.5832    -1.9518 H       
  32 H32           -1.2645    -0.3627    -1.4881 H       
  33 H33           -1.6473    -0.4991    -3.9050 H       
  34 H34           -2.2716     1.6696    -2.9490 H       
  35 H35           -0.9511     2.3011    -4.0254 H       
  36 H36           -1.1588     4.5590    -0.8066 H       
  37 H37            4.7992     2.5083    -1.4919 H       
  38 H38            4.4683     2.4011     0.2695 H       
  39 H39            3.2198     0.5012    -0.3745 H       
  40 H40            2.9691     1.1183    -2.0420 H       
  41 H41            3.1547     7.8791    -0.1910 H       
  42 H42            3.8580     7.5197    -1.7862 H       
  43 H43            2.1482     7.9969    -1.6544 H       
  44 H44            0.1794     7.3037    -0.3844 H       
  45 H45           -3.5139     8.0777    -3.1702 H       
  46 H46           -1.3471     4.8585    -4.9432 H       
  47 H47            0.2922     4.9431    -3.1092 H       
  48 H48            0.0737     0.1490    -5.4163 H       
@<TRIPOS>BOND
   1    1    2 1
   2    1    4 1
   3    1    5 1
   4    1   30 1
   5    2    3 1
   6    2   31 1
   7    2   32 1
   8    3    4 1
   9    3   29 1
  10    3   33 1
  11    4   34 1
  12    4   35 1
  13    5    6 2
  14    5    7 2
  15    5    8 am
  16    8   10 1
  17    8   36 1
  18    9   10 2
  19    9   14 1
  20    9   15 1
  21   10   11 1
  22   11   12 2
  23   11   20 1
  24   12   13 1
  25   12   19 1
  26   13   14 am
  27   13   18 2
  28   14   16 1
  29   15   17 1
  30   16   17 1
  31   16   37 1
  32   16   38 1
  33   17   39 1
  34   17   40 1
  35   19   41 1
  36   19   42 1
  37   19   43 1
  38   20   21 1
  39   20   44 1
  40   21   22 ar
  41   21   26 ar
  42   22   23 ar
  43   22   28 1
  44   23   24 ar
  45   23   45 1
  46   24   25 ar
  47   24   27 1
  48   25   26 ar
  49   25   46 1
  50   26   47 1
  51   29   48 1

#	End of record

