#	Name: ASD01820014
#	Creating user name:	WinNT
#	Creation time:	15. 06. 2019 19:36

#	Modifying user name:	WinNT
#	Modification time:	15. 06. 2019 19:36

#	Program:	/corina/corina34_cracker 3.40 0067  02.08.2006

@<TRIPOS>MOLECULE
ASD01820014
  96   99    0    0    0
SMALL
NO_CHARGES


@<TRIPOS>ATOM
   1 C1            -0.0167     1.3776     0.0096 C.ar    
   2 C2             0.0021    -0.0041     0.0020 C.ar    
   3 C3             1.2066    -0.6906    -0.0127 C.ar    
   4 C4             2.3989     0.0146    -0.0203 C.ar    
   5 C5             2.3798     1.4243    -0.0130 C.ar    
   6 C6             1.1688     2.0968     0.0022 C.ar    
   7 C7             3.8260    -0.3703    -0.0355 C.2     
   8 N8             4.5720     0.7492    -0.0368 N.am    
   9 C9             3.7959     1.8479    -0.0241 C.2     
  10 O10            4.1925     2.9958    -0.0216 O.2     
  11 O11            4.2535    -1.5070    -0.0446 O.2     
  12 C12            6.0368     0.7691    -0.0497 C.3     
  13 C13            6.5340     0.7828    -1.4966 C.3     
  14 C14            8.0638     0.8036    -1.5099 C.3     
  15 N15            8.5412     0.8168    -2.8991 N.4     
  16 C16            8.0292     2.0127    -3.5815 C.3     
  17 C17           10.0100     0.8368    -2.9120 C.3     
  18 C18           10.5072     0.8505    -4.3589 C.3     
  19 C19           12.0370     0.8713    -4.3723 C.3     
  20 C20           12.5342     0.8850    -5.8192 C.3     
  21 C21           14.0640     0.9058    -5.8325 C.3     
  22 C22           14.5612     0.9195    -7.2794 C.3     
  23 N23           16.0301     0.9395    -7.2923 N.4     
  24 C24           16.5075     0.9526    -8.6815 C.3     
  25 C25           18.0373     0.9734    -8.6949 C.3     
  26 C26           18.5345     0.9871   -10.1418 C.3     
  27 N27           19.9993     1.0071   -10.1546 N.am    
  28 C28           16.5095     2.1422    -6.5983 C.3     
  29 C29           16.5420    -0.2564    -6.6099 C.3     
  30 C30           20.7481    -0.1119   -10.1664 C.2     
  31 C31           22.1901     0.3077    -9.9792 C.3     
  32 C32           22.1799     1.7737   -10.3892 C.3     
  33 C33           20.7163     2.1442   -10.1613 C.2     
  34 C34           23.1543    -0.5970   -10.6881 C.3     
  35 C35           23.2538    -0.3073   -12.1814 C.3     
  36 C36           23.6436     1.1645   -12.3577 C.3     
  37 C37           22.4995     2.0304   -11.8491 C.3     
  38 O38           20.3422    -1.2461   -10.3021 O.2     
  39 O39           20.2789     3.2642   -10.0070 O.2     
  40 C40           23.0934     2.5915    -9.4739 C.3     
  41 C41           22.5086     0.2375    -8.4844 C.3     
  42 C42            8.0617    -0.3859    -3.5931 C.3     
  43 H43           -0.9613     1.9011     0.0169 H       
  44 H44           -0.9280    -0.5530     0.0079 H       
  45 H45            1.2153    -1.7705    -0.0179 H       
  46 H46            1.1481     3.1765     0.0074 H       
  47 H47            6.3925     1.6615     0.4652 H       
  48 H48            6.4167    -0.1183     0.4567 H       
  49 H49            6.1782    -0.1096    -2.0115 H       
  50 H50            6.1541     1.6702    -2.0029 H       
  51 H51            8.4195     1.6960    -0.9950 H       
  52 H52            8.4437    -0.0837    -1.0036 H       
  53 H53            8.3850     2.9051    -3.0666 H       
  54 H54            8.3834     2.0224    -4.6123 H       
  55 H55            6.9394     1.9979    -3.5720 H       
  56 H56           10.3657     1.7292    -2.3971 H       
  57 H57           10.3899    -0.0506    -2.4057 H       
  58 H58           10.1515    -0.0420    -4.8738 H       
  59 H59           10.1273     1.7378    -4.8652 H       
  60 H60           12.3928     1.7637    -3.8574 H       
  61 H61           12.4169    -0.0161    -3.8659 H       
  62 H62           12.1785    -0.0074    -6.3341 H       
  63 H63           12.1543     1.7723    -6.3255 H       
  64 H64           14.4198     1.7982    -5.3176 H       
  65 H65           14.4439     0.0184    -5.3262 H       
  66 H66           14.2055     0.0271    -7.7943 H       
  67 H67           14.1814     1.8069    -7.7858 H       
  68 H68           16.1517     0.0602    -9.1964 H       
  69 H69           16.1276     1.8400    -9.1878 H       
  70 H70           18.3930     1.8658    -8.1800 H       
  71 H71           18.4171     0.0861    -8.1885 H       
  72 H72           18.1787     0.0947   -10.6567 H       
  73 H73           18.1546     1.8745   -10.6481 H       
  74 H74           16.1553     2.1324    -5.5675 H       
  75 H75           17.5994     2.1570    -6.6079 H       
  76 H76           16.1296     3.0295    -7.1047 H       
  77 H77           16.1863    -1.1489    -7.1248 H       
  78 H78           17.6319    -0.2416    -6.6194 H       
  79 H79           16.1878    -0.2662    -5.5791 H       
  80 H80           24.1412    -0.4776   -10.2409 H       
  81 H81           22.8322    -1.6294   -10.5515 H       
  82 H82           24.0148    -0.9457   -12.6301 H       
  83 H83           22.2906    -0.4923   -12.6569 H       
  84 H84           24.5460     1.3758   -11.7839 H       
  85 H85           23.8197     1.3730   -13.4130 H       
  86 H86           21.6105     1.8257   -12.4457 H       
  87 H87           22.7698     3.0792   -11.9716 H       
  88 H88           24.1124     2.2111    -9.5437 H       
  89 H89           23.0740     3.6370    -9.7814 H       
  90 H90           22.7445     2.5089    -8.4445 H       
  91 H91           22.3879    -0.7878    -8.1349 H       
  92 H92           23.5362     0.5600    -8.3163 H       
  93 H93           21.8288     0.8904    -7.9370 H       
  94 H94            6.9719    -0.4008    -3.5836 H       
  95 H95            8.4160    -0.3762    -4.6239 H       
  96 H96            8.4416    -1.2733    -3.0868 H       
@<TRIPOS>BOND
   1    1    2 ar
   2    1    6 ar
   3    1   43 1
   4    2    3 ar
   5    2   44 1
   6    3    4 ar
   7    3   45 1
   8    4    5 ar
   9    4    7 1
  10    5    6 ar
  11    5    9 1
  12    6   46 1
  13    7    8 am
  14    7   11 2
  15    8    9 am
  16    8   12 1
  17    9   10 2
  18   12   13 1
  19   12   47 1
  20   12   48 1
  21   13   14 1
  22   13   49 1
  23   13   50 1
  24   14   15 1
  25   14   51 1
  26   14   52 1
  27   15   16 1
  28   15   17 1
  29   15   42 1
  30   16   53 1
  31   16   54 1
  32   16   55 1
  33   17   18 1
  34   17   56 1
  35   17   57 1
  36   18   19 1
  37   18   58 1
  38   18   59 1
  39   19   20 1
  40   19   60 1
  41   19   61 1
  42   20   21 1
  43   20   62 1
  44   20   63 1
  45   21   22 1
  46   21   64 1
  47   21   65 1
  48   22   23 1
  49   22   66 1
  50   22   67 1
  51   23   24 1
  52   23   28 1
  53   23   29 1
  54   24   25 1
  55   24   68 1
  56   24   69 1
  57   25   26 1
  58   25   70 1
  59   25   71 1
  60   26   27 1
  61   26   72 1
  62   26   73 1
  63   27   30 am
  64   27   33 am
  65   28   74 1
  66   28   75 1
  67   28   76 1
  68   29   77 1
  69   29   78 1
  70   29   79 1
  71   30   31 1
  72   30   38 2
  73   31   32 1
  74   31   34 1
  75   31   41 1
  76   32   33 1
  77   32   40 1
  78   32   37 1
  79   33   39 2
  80   34   35 1
  81   34   80 1
  82   34   81 1
  83   35   36 1
  84   35   82 1
  85   35   83 1
  86   36   37 1
  87   36   84 1
  88   36   85 1
  89   37   86 1
  90   37   87 1
  91   40   88 1
  92   40   89 1
  93   40   90 1
  94   41   91 1
  95   41   92 1
  96   41   93 1
  97   42   94 1
  98   42   95 1
  99   42   96 1

#	End of record

