#	Name: ASD01140621
#	Creating user name:	WinNT
#	Creation time:	15. 06. 2019 19:01

#	Modifying user name:	WinNT
#	Modification time:	15. 06. 2019 19:01

#	Program:	/corina/corina34_cracker 3.40 0067  02.08.2006

@<TRIPOS>MOLECULE
ASD01140621
  43   47    0    0    0
SMALL
NO_CHARGES


@<TRIPOS>ATOM
   1 N1            -0.3272     0.8252     0.1172 N.pl3   
   2 C2             0.5215    -0.9612    -1.2344 C.ar    
   3 C3             1.8942     1.4391    -0.6634 C.3     
   4 C4             0.7802     0.0407    -2.3093 C.2     
   5 N5             1.4700     1.0892    -2.0147 N.2     
   6 C6            -0.4273    -1.4478     0.9312 C.ar    
   7 C7            -0.1120    -2.7785     0.7598 C.ar    
   8 C8             0.5464    -3.2099    -0.3953 C.ar    
   9 C9             0.8619    -2.2935    -1.3986 C.ar    
  10 C10           -0.0928    -0.5206    -0.0464 C.ar    
  11 C11            0.2585    -0.1644    -3.6795 C.ar    
  12 C12           -0.6650    -1.1784    -3.9331 C.ar    
  13 C13           -1.1476    -1.3647    -5.2120 C.ar    
  14 C14           -0.7178    -0.5489    -6.2439 C.ar    
  15 C15            0.1975     0.4588    -6.0017 C.ar    
  16 C16            0.6848     0.6607    -4.7237 C.ar    
  17 N17           -1.4740     2.7045    -0.2176 N.2     
  18 C18           -1.5395     1.4645     0.1218 C.2     
  19 C19            0.6912     1.9050     0.1462 C.3     
  20 C20           -0.0665     3.0932    -0.4374 C.3     
  21 C21            0.2247     3.2451    -1.9082 C.2     
  22 C22            1.3338     3.7733    -2.4517 C.2     
  23 N23            1.1973     3.7224    -3.7886 N.2     
  24 C24            0.0459     3.1825    -4.0706 C.2     
  25 O25           -0.5761     2.8714    -2.9255 O.3     
  26 C26            0.8967    -4.5899    -0.5482 C.1     
  27 C27            1.1840    -5.7213    -0.6735 C.1     
  28 F28            1.5745     1.6492    -4.4861 F       
  29 H29            2.3376     0.5659    -0.1847 H       
  30 H30            2.6320     2.2401    -0.7107 H       
  31 H31           -0.9360    -1.1258     1.8278 H       
  32 H32           -0.3756    -3.4940     1.5247 H       
  33 H33            1.3662    -2.6203    -2.2960 H       
  34 H34           -1.0015    -1.8169    -3.1297 H       
  35 H35           -1.8627    -2.1498    -5.4086 H       
  36 H36           -1.0988    -0.7003    -7.2430 H       
  37 H37            0.5290     1.0920    -6.8114 H       
  38 H38           -2.4644     0.9732     0.3855 H       
  39 H39            0.9906     2.1077     1.1745 H       
  40 H40            0.1722     4.0091     0.1032 H       
  41 H41            2.1822     4.1678    -1.9123 H       
  42 H42           -0.3416     3.0102    -5.0638 H       
  43 H43            1.4409    -6.7332    -0.7857 H       
@<TRIPOS>BOND
   1    1   10 1
   2    1   19 1
   3    1   18 1
   4    2    4 1
   5    2   10 ar
   6    2    9 ar
   7    3    5 1
   8    3   19 1
   9    3   29 1
  10    3   30 1
  11    4   11 1
  12    4    5 2
  13    6    7 ar
  14    6   10 ar
  15    6   31 1
  16    7    8 ar
  17    7   32 1
  18    8    9 ar
  19    8   26 1
  20    9   33 1
  21   11   12 ar
  22   11   16 ar
  23   12   13 ar
  24   12   34 1
  25   13   14 ar
  26   13   35 1
  27   14   15 ar
  28   14   36 1
  29   15   16 ar
  30   15   37 1
  31   16   28 1
  32   17   18 2
  33   17   20 1
  34   18   38 1
  35   19   20 1
  36   19   39 1
  37   20   21 1
  38   20   40 1
  39   21   22 2
  40   21   25 1
  41   22   23 1
  42   22   41 1
  43   23   24 2
  44   24   25 1
  45   24   42 1
  46   26   27 3
  47   27   43 1

#	End of record

