#	Name: ASD01148138
#	Creating user name:	WinNT
#	Creation time:	15. 06. 2019 19:02

#	Modifying user name:	WinNT
#	Modification time:	15. 06. 2019 19:02

#	Program:	/corina/corina34_cracker 3.40 0067  02.08.2006

@<TRIPOS>MOLECULE
ASD01148138
  57   61    0    0    0
SMALL
NO_CHARGES


@<TRIPOS>ATOM
   1 C1            -0.0183     1.2739     0.0744 C.ar    
   2 N2            -0.0101    -0.0504     0.0224 N.ar    
   3 C3            -1.1155    -0.7652    -0.0090 C.ar    
   4 C4            -2.3600    -0.1428     0.0118 C.ar    
   5 C5            -2.4077     1.2623     0.0669 C.ar    
   6 C6            -1.2145     1.9791     0.1044 C.ar    
   7 N7            -3.5270    -0.8754    -0.0208 N.pl3   
   8 C8            -4.7389    -0.3062    -0.0025 C.2     
   9 C9            -4.9119     1.0625     0.0503 C.2     
  10 C10           -3.7231     1.9288     0.0893 C.2     
  11 C11           -6.2629     1.6454     0.0674 C.2     
  12 N12           -6.9919     1.6237     1.2007 N.am    
  13 C13           -6.4992     0.9371     2.4053 C.3     
  14 C14           -8.3014     2.2912     1.2720 C.3     
  15 C15           -8.3201     3.1877     2.5153 C.3     
  16 O16           -7.9373     2.4172     3.6570 O.3     
  17 C17           -6.6093     1.9023     3.5912 C.3     
  18 O18           -6.7217     2.1468    -0.9414 O.2     
  19 O19           -3.8211     3.1422     0.1367 O.2     
  20 N20            1.1889     1.9675     0.1052 N.pl3   
  21 C21            1.1913     3.4314     0.1627 C.3     
  22 C22            2.4980     3.9533     0.7972 C.3     
  23 C23            2.8123     5.2363     0.0581 C.ar    
  24 C24            2.0939     5.2839    -1.1217 C.ar    
  25 C25            1.2476     4.0361    -1.2562 C.3     
  26 C26            3.6603     6.2794     0.3913 C.ar    
  27 C27            3.7896     7.3662    -0.4509 C.ar    
  28 C28            3.0710     7.4138    -1.6311 C.ar    
  29 C29            2.2253     6.3744    -1.9653 C.ar    
  30 C30           -3.4113    -2.9024     1.3428 C.3     
  31 C31           -3.4379    -2.3366    -0.0785 C.3     
  32 H32           -1.0558    -1.8427    -0.0515 H       
  33 H33           -1.2191     3.0583     0.1473 H       
  34 H34           -5.6125    -0.9406    -0.0303 H       
  35 H35           -7.1043     0.0507     2.5960 H       
  36 H36           -5.4580     0.6477     2.2630 H       
  37 H37           -8.4531     2.8982     0.3794 H       
  38 H38           -9.0910     1.5435     1.3466 H       
  39 H39           -7.6193     4.0117     2.3806 H       
  40 H40           -9.3247     3.5838     2.6635 H       
  41 H41           -6.3801     1.3675     4.5129 H       
  42 H42           -5.9059     2.7248     3.4621 H       
  43 H43            2.0281     1.4814     0.0886 H       
  44 H44            0.3221     3.7974     0.7091 H       
  45 H45            2.3491     4.1547     1.8581 H       
  46 H46            3.3014     3.2300     0.6579 H       
  47 H47            1.7147     3.3350    -1.9479 H       
  48 H48            0.2450     4.2941    -1.5974 H       
  49 H49            4.2219     6.2430     1.3131 H       
  50 H50            4.4511     8.1783    -0.1878 H       
  51 H51            3.1708     8.2630    -2.2908 H       
  52 H52            1.6642     6.4123    -2.8874 H       
  53 H53           -2.5467    -2.5064     1.8754 H       
  54 H54           -4.3234    -2.6144     1.8656 H       
  55 H55           -3.3450    -3.9895     1.2999 H       
  56 H56           -4.3025    -2.7326    -0.6111 H       
  57 H57           -2.5259    -2.6246    -0.6013 H       
@<TRIPOS>BOND
   1    1    2 ar
   2    1   20 1
   3    1    6 ar
   4    2    3 ar
   5    3    4 ar
   6    3   32 1
   7    4    5 ar
   8    4    7 1
   9    5    6 ar
  10    5   10 1
  11    6   33 1
  12    7    8 1
  13    7   31 1
  14    8    9 2
  15    8   34 1
  16    9   10 1
  17    9   11 1
  18   10   19 2
  19   11   12 am
  20   11   18 2
  21   12   13 1
  22   12   14 1
  23   13   17 1
  24   13   35 1
  25   13   36 1
  26   14   15 1
  27   14   37 1
  28   14   38 1
  29   15   16 1
  30   15   39 1
  31   15   40 1
  32   16   17 1
  33   17   41 1
  34   17   42 1
  35   20   21 1
  36   20   43 1
  37   21   22 1
  38   21   25 1
  39   21   44 1
  40   22   23 1
  41   22   45 1
  42   22   46 1
  43   23   24 ar
  44   23   26 ar
  45   24   25 1
  46   24   29 ar
  47   25   47 1
  48   25   48 1
  49   26   27 ar
  50   26   49 1
  51   27   28 ar
  52   27   50 1
  53   28   29 ar
  54   28   51 1
  55   29   52 1
  56   30   31 1
  57   30   53 1
  58   30   54 1
  59   30   55 1
  60   31   56 1
  61   31   57 1

#	End of record

