#	Name: ASD01001091
#	Creating user name:	WinNT
#	Creation time:	15. 06. 2019 18:55

#	Modifying user name:	WinNT
#	Modification time:	15. 06. 2019 18:55

#	Program:	/corina/corina34_cracker 3.40 0067  02.08.2006

@<TRIPOS>MOLECULE
ASD01001091
  42   44    0    0    0
SMALL
NO_CHARGES


@<TRIPOS>ATOM
   1 C1             0.5765     1.3458    -1.7383 C.ar    
   2 C2             0.7199     0.0028    -2.0170 C.ar    
   3 C3             1.6997     2.1144    -1.4233 C.ar    
   4 C4             1.9726    -0.5847    -1.9850 C.ar    
   5 C5             2.9620     1.5150    -1.3931 C.ar    
   6 C6             1.5543     3.5512    -1.1245 C.2     
   7 C7             3.0898     0.1690    -1.6740 C.ar    
   8 N8             2.4977     4.3228    -0.7085 N.2     
   9 N9             2.1035     5.6429    -0.5001 N.am    
  10 C10            0.6747     5.7703    -0.8286 C.3     
  11 C11            0.2762     4.3467    -1.2658 C.3     
  12 C12            2.9005     6.6401    -0.0678 C.2     
  13 C13           -0.1122     6.1976     0.3835 C.ar    
  14 C14            0.2089     5.6911     1.6291 C.ar    
  15 C15           -0.5116     6.0809     2.7432 C.ar    
  16 C16           -1.5542     6.9776     2.6139 C.ar    
  17 C17           -1.8781     7.4878     1.3649 C.ar    
  18 C18           -1.1503     7.0995     0.2497 C.ar    
  19 Cl19           4.3652     2.4600    -1.0035 Cl      
  20 O20           -2.9038     8.3698     1.2350 O.3     
  21 N21            4.1494     6.3677     0.3593 N.am    
  22 O22            2.4927     7.7857    -0.0630 O.2     
  23 C23            5.1030     7.4581     0.5779 C.3     
  24 C24            4.5534     4.9810     0.6048 C.3     
  25 H25           -0.4013     1.8033    -1.7678 H       
  26 H26           -0.1479    -0.5922    -2.2606 H       
  27 H27            2.0782    -1.6371    -2.2035 H       
  28 H28            4.0643    -0.2961    -1.6509 H       
  29 H29            0.5309     6.4741    -1.6484 H       
  30 H30           -0.0677     4.3466    -2.3002 H       
  31 H31           -0.4930     3.9454    -0.6061 H       
  32 H32            1.0235     4.9896     1.7322 H       
  33 H33           -0.2591     5.6836     3.7152 H       
  34 H34           -2.1170     7.2812     3.4843 H       
  35 H35           -1.4004     7.4951    -0.7236 H       
  36 H36           -2.6401     9.2957     1.3260 H       
  37 H37            5.0238     7.8091     1.6068 H       
  38 H38            6.1152     7.0980     0.3937 H       
  39 H39            4.8795     8.2785    -0.1041 H       
  40 H40            3.6883     4.3264     0.4993 H       
  41 H41            5.3177     4.6921    -0.1166 H       
  42 H42            4.9548     4.8928     1.6143 H       
@<TRIPOS>BOND
   1    1    2 ar
   2    1    3 ar
   3    1   25 1
   4    2    4 ar
   5    2   26 1
   6    3    6 1
   7    3    5 ar
   8    4    7 ar
   9    4   27 1
  10    5   19 1
  11    5    7 ar
  12    6    8 2
  13    6   11 1
  14    7   28 1
  15    8    9 1
  16    9   10 1
  17    9   12 am
  18   10   11 1
  19   10   13 1
  20   10   29 1
  21   11   30 1
  22   11   31 1
  23   12   21 am
  24   12   22 2
  25   13   14 ar
  26   13   18 ar
  27   14   15 ar
  28   14   32 1
  29   15   16 ar
  30   15   33 1
  31   16   17 ar
  32   16   34 1
  33   17   18 ar
  34   17   20 1
  35   18   35 1
  36   20   36 1
  37   21   23 1
  38   21   24 1
  39   23   37 1
  40   23   38 1
  41   23   39 1
  42   24   40 1
  43   24   41 1
  44   24   42 1

#	End of record

