#	Name: ASD03240084
#	Creating user name:	WinNT
#	Creation time:	15. 06. 2019 20:34

#	Modifying user name:	WinNT
#	Modification time:	15. 06. 2019 20:34

#	Program:	/corina/corina34_cracker 3.40 0067  02.08.2006

@<TRIPOS>MOLECULE
ASD03240084
  71   77    0    0    0
SMALL
NO_CHARGES


@<TRIPOS>ATOM
   1 C1             1.3429     2.0125     0.6593 C.ar    
   2 C2             1.2870     0.5971     0.7164 C.ar    
   3 C3             2.5691     2.6479     0.4277 C.ar    
   4 C4             3.6939     1.8513     0.2614 C.ar    
   5 C5             3.5640     0.4473     0.3307 C.ar    
   6 N6             2.3943    -0.1245     0.5501 N.ar    
   7 C7             4.7647    -0.4020     0.1526 C.ar    
   8 C8             5.0183     2.4691     0.0130 C.ar    
   9 C9             5.1647     3.4340    -0.9825 C.ar    
  10 C10            6.4000     4.0060    -1.2089 C.ar    
  11 C11            7.4918     3.6236    -0.4503 C.ar    
  12 C12            7.3525     2.6666     0.5389 C.ar    
  13 C13            6.1210     2.0916     0.7779 C.ar    
  14 C14            4.8953    -1.5895     0.8723 C.ar    
  15 C15            6.0159    -2.3763     0.7021 C.ar    
  16 C16            7.0088    -1.9893    -0.1801 C.ar    
  17 C17            6.8852    -0.8123    -0.8965 C.ar    
  18 C18            5.7663    -0.0201    -0.7395 C.ar    
  19 C19            8.2302    -2.8533    -0.3612 C.3     
  20 N20            7.9895    -3.8217    -1.4393 N.3     
  21 C21            9.2284    -4.5198    -1.8059 C.3     
  22 C22            8.9723    -5.4106    -3.0236 C.3     
  23 C23            7.8742    -6.4233    -2.6872 C.3     
  24 C24            6.6100    -5.6711    -2.2621 C.3     
  25 C25            6.9346    -4.7728    -1.0664 C.3     
  26 N26            7.5838    -7.2408    -3.8677 N.pl3   
  27 C27            7.1424    -6.7817    -5.0925 C.ar    
  28 C28            7.0038    -7.9189    -5.9059 C.ar    
  29 N29            7.3601    -8.9904    -5.1518 N.2     
  30 C30            7.7047    -8.5925    -3.9619 C.2     
  31 C31            6.8444    -5.5260    -5.6042 C.ar    
  32 C32            6.4142    -5.4046    -6.9083 C.ar    
  33 C33            6.2770    -6.5282    -7.7111 C.ar    
  34 C34            6.5663    -7.7715    -7.2249 C.ar    
  35 N35            0.0987     0.0150     0.9407 N.ar    
  36 C36           -0.9818     0.7415     1.1026 C.ar    
  37 N37           -0.9766     2.0634     1.0570 N.ar    
  38 C38            0.1443     2.7424     0.8464 C.ar    
  39 N39            0.1397     4.1195     0.8005 N.pl3   
  40 C40            8.1608    -9.4983    -2.8471 C.3     
  41 H41            2.6376     3.7246     0.3795 H       
  42 H42            4.3131     3.7331    -1.5756 H       
  43 H43            6.5148     4.7533    -1.9800 H       
  44 H44            8.4567     4.0737    -0.6312 H       
  45 H45            8.2085     2.3717     1.1278 H       
  46 H46            6.0134     1.3448     1.5507 H       
  47 H47            4.1210    -1.8924     1.5615 H       
  48 H48            6.1184    -3.2959     1.2591 H       
  49 H49            7.6637    -0.5152    -1.5835 H       
  50 H50            5.6708     0.8985    -1.2993 H       
  51 H51            9.0836    -2.2264    -0.6199 H       
  52 H52            8.4389    -3.3864     0.5663 H       
  53 H53            9.9997    -3.7883    -2.0468 H       
  54 H54            9.5599    -5.1348    -0.9693 H       
  55 H55            8.6539    -4.7946    -3.8647 H       
  56 H56            9.8880    -5.9404    -3.2859 H       
  57 H57            8.2078    -7.0649    -1.8717 H       
  58 H58            6.2545    -5.0592    -3.0911 H       
  59 H59            5.8380    -6.3872    -1.9803 H       
  60 H60            7.2769    -5.3866    -0.2333 H       
  61 H61            6.0399    -4.2250    -0.7703 H       
  62 H62            6.9487    -4.6484    -4.9834 H       
  63 H63            6.1820    -4.4284    -7.3077 H       
  64 H64            5.9384    -6.4184    -8.7308 H       
  65 H65            6.4565    -8.6392    -7.8586 H       
  66 H66           -1.9196     0.2364     1.2812 H       
  67 H67           -0.6905     4.6060     0.9230 H       
  68 H68            0.9666     4.6024     0.6458 H       
  69 H69            9.2499    -9.5403    -2.8358 H       
  70 H70            7.8022    -9.1100    -1.8938 H       
  71 H71            7.7602   -10.4995    -3.0056 H       
@<TRIPOS>BOND
   1    1    2 ar
   2    1    3 ar
   3    1   38 ar
   4    2   35 ar
   5    2    6 ar
   6    3    4 ar
   7    3   41 1
   8    4    5 ar
   9    4    8 1
  10    5    6 ar
  11    5    7 1
  12    7   14 ar
  13    7   18 ar
  14    8    9 ar
  15    8   13 ar
  16    9   10 ar
  17    9   42 1
  18   10   11 ar
  19   10   43 1
  20   11   12 ar
  21   11   44 1
  22   12   13 ar
  23   12   45 1
  24   13   46 1
  25   14   15 ar
  26   14   47 1
  27   15   16 ar
  28   15   48 1
  29   16   17 ar
  30   16   19 1
  31   17   18 ar
  32   17   49 1
  33   18   50 1
  34   19   20 1
  35   19   51 1
  36   19   52 1
  37   20   21 1
  38   20   25 1
  39   21   22 1
  40   21   53 1
  41   21   54 1
  42   22   23 1
  43   22   55 1
  44   22   56 1
  45   23   24 1
  46   23   26 1
  47   23   57 1
  48   24   25 1
  49   24   58 1
  50   24   59 1
  51   25   60 1
  52   25   61 1
  53   26   27 1
  54   26   30 1
  55   27   28 ar
  56   27   31 ar
  57   28   29 1
  58   28   34 ar
  59   29   30 2
  60   30   40 1
  61   31   32 ar
  62   31   62 1
  63   32   33 ar
  64   32   63 1
  65   33   34 ar
  66   33   64 1
  67   34   65 1
  68   35   36 ar
  69   36   37 ar
  70   36   66 1
  71   37   38 ar
  72   38   39 1
  73   39   67 1
  74   39   68 1
  75   40   69 1
  76   40   70 1
  77   40   71 1

#	End of record

