#	Name: ASD05490050
#	Creating user name:	WinNT
#	Creation time:	15. 06. 2019 21:01

#	Modifying user name:	WinNT
#	Modification time:	15. 06. 2019 21:01

#	Program:	/corina/corina34_cracker 3.40 0067  02.08.2006

@<TRIPOS>MOLECULE
ASD05490050
  40   42    0    0    0
SMALL
NO_CHARGES


@<TRIPOS>ATOM
   1 O1            -0.0173     1.4248     0.0099 O.3     
   2 N2             2.2882     1.3274    -0.0127 N.ar    
   3 C3             3.4875     1.8993    -0.0214 C.ar    
   4 C4             1.1816     2.0563     0.0018 C.ar    
   5 N5             1.2063     3.3776     0.0082 N.ar    
   6 C6             2.3629     4.0327     0.0007 C.ar    
   7 C7             3.5625     3.3023    -0.0142 C.ar    
   8 N8             4.6377     1.1297    -0.0361 N.pl3   
   9 C9             4.0886     5.4077    -0.0079 C.2     
  10 N10            4.5780     4.2011    -0.0188 N.2     
  11 Br11           5.1154     6.9957    -0.0098 Br      
  12 C12            0.0021    -0.0041     0.0020 C.3     
  13 C13           -1.4333    -0.5336     0.0129 C.3     
  14 O14           -2.0889    -0.1578    -1.2000 O.3     
  15 C15           -3.4428    -0.6056    -1.2917 C.3     
  16 N16            2.7249     5.3565     0.0044 N.pl3   
  17 C17            1.8027     7.1289     1.4165 C.3     
  18 C18            1.8145     6.5042     0.0189 C.3     
  19 O19            2.2566     7.4753    -0.9317 O.3     
  20 C20            1.4201     8.6307    -1.0176 C.3     
  21 C21            1.3925     9.3408     0.3384 C.3     
  22 C22            0.8957     8.3633     1.4079 C.3     
  23 H23            4.5736     0.1618    -0.0401 H       
  24 H24            5.5079     1.5582    -0.0423 H       
  25 H25            0.5123    -0.3556    -0.8948 H       
  26 H26            0.5293    -0.3651     0.8851 H       
  27 H27           -1.4190    -1.6203     0.0965 H       
  28 H28           -1.9701    -0.1109     0.8621 H       
  29 H29           -4.0213    -0.1844    -0.4695 H       
  30 H30           -3.8696    -0.2802    -2.2404 H       
  31 H31           -3.4702    -1.6938    -1.2352 H       
  32 H32            1.4239     6.4035     2.1365 H       
  33 H33            2.8153     7.4229     1.6927 H       
  34 H34            0.8087     6.1736    -0.2400 H       
  35 H35            1.8134     9.3087    -1.7751 H       
  36 H36            0.4091     8.3280    -1.2901 H       
  37 H37            2.3968     9.6795     0.5927 H       
  38 H38            0.7203    10.1974     0.2873 H       
  39 H39           -0.1270     8.0627     1.1803 H       
  40 H40            0.9266     8.8453     2.3850 H       
@<TRIPOS>BOND
   1    1   12 1
   2    1    4 1
   3    2    3 ar
   4    2    4 ar
   5    3    8 1
   6    3    7 ar
   7    4    5 ar
   8    5    6 ar
   9    6    7 ar
  10    6   16 1
  11    7   10 1
  12    8   23 1
  13    8   24 1
  14    9   10 2
  15    9   11 1
  16    9   16 1
  17   12   13 1
  18   12   25 1
  19   12   26 1
  20   13   14 1
  21   13   27 1
  22   13   28 1
  23   14   15 1
  24   15   29 1
  25   15   30 1
  26   15   31 1
  27   16   18 1
  28   17   18 1
  29   17   22 1
  30   17   32 1
  31   17   33 1
  32   18   19 1
  33   18   34 1
  34   19   20 1
  35   20   21 1
  36   20   35 1
  37   20   36 1
  38   21   22 1
  39   21   37 1
  40   21   38 1
  41   22   39 1
  42   22   40 1

#	End of record

