#	Name: ASD09740160
#	Creating user name:	WinNT
#	Creation time:	15. 06. 2019 21:22

#	Modifying user name:	WinNT
#	Modification time:	15. 06. 2019 21:22

#	Program:	/corina/corina34_cracker 3.40 0067  02.08.2006

@<TRIPOS>MOLECULE
ASD09740160
  50   52    0    0    0
SMALL
NO_CHARGES


@<TRIPOS>ATOM
   1 S1            -0.0172     1.4168     0.0098 S.o2    
   2 O2            -4.5863     3.0089    -6.3443 O.3     
   3 N3            -4.1223     2.3809    -5.4162 N.2     
   4 C4            -4.0179     4.2169    -6.4093 C.2     
   5 N5            -3.1502     4.2880    -5.4307 N.2     
   6 C6            -3.2234     3.0978    -4.7934 C.2     
   7 C7            -2.4323     2.6830    -3.6080 C.ar    
   8 C8            -4.3185     5.2945    -7.4191 C.3     
   9 C9            -2.6145     1.4178    -3.0537 C.ar    
  10 C10           -1.5007     3.5553    -3.0491 C.ar    
  11 C11           -0.7677     3.1645    -1.9468 C.ar    
  12 C12           -0.9567     1.9094    -1.3970 C.ar    
  13 C13           -1.8762     1.0373    -1.9514 C.ar    
  14 O14            0.0021    -0.0041     0.0020 O.2     
  15 O15            1.1617     2.2101     0.0028 O.2     
  16 N16           -0.8748     1.8654     1.3536 N.am    
  17 C17           -4.0219     4.7719    -8.8262 C.3     
  18 C18           -5.7717     5.6817    -7.3230 C.ar    
  19 C19           -6.1213     6.9834    -7.0160 C.ar    
  20 C20           -7.4543     7.3386    -6.9277 C.ar    
  21 C21           -8.4377     6.3921    -7.1470 C.ar    
  22 C22           -8.0881     5.0907    -7.4549 C.ar    
  23 C23           -6.7551     4.7365    -7.5474 C.ar    
  24 C24           -9.8910     6.7791    -7.0499 C.3     
  25 C25          -10.3884     7.2412    -8.4210 C.3     
  26 C26          -10.3469     6.0670    -9.4009 C.3     
  27 C27          -11.8256     7.7512    -8.2968 C.3     
  28 H28           -3.6960     6.1661    -7.2165 H       
  29 H29           -3.3324     0.7362    -3.4855 H       
  30 H30           -1.3521     4.5354    -3.4778 H       
  31 H31           -0.0451     3.8397    -1.5130 H       
  32 H32           -2.0199     0.0585    -1.5181 H       
  33 H33           -0.7362     2.7410     1.7474 H       
  34 H34           -1.5157     1.2527     1.7468 H       
  35 H35           -2.9708     4.4918    -8.8957 H       
  36 H36           -4.6443     3.9003    -9.0287 H       
  37 H37           -4.2393     5.5512    -9.5565 H       
  38 H38           -5.3530     7.7228    -6.8446 H       
  39 H39           -7.7274     8.3554    -6.6872 H       
  40 H40           -8.8565     4.3512    -7.6259 H       
  41 H41           -6.4820     3.7197    -7.7880 H       
  42 H42          -10.4749     5.9189    -6.7225 H       
  43 H43          -10.0037     7.5900    -6.3302 H       
  44 H44           -9.7486     8.0437    -8.7881 H       
  45 H45          -10.7013     6.3962   -10.3777 H       
  46 H46           -9.3230     5.7037    -9.4894 H       
  47 H47          -10.9867     5.2646    -9.0338 H       
  48 H48          -11.8552     8.5878    -7.5986 H       
  49 H49          -12.1800     8.0805    -9.2736 H       
  50 H50          -12.4654     6.9488    -7.9296 H       
@<TRIPOS>BOND
   1    1   14 2
   2    1   15 2
   3    1   16 am
   4    1   12 1
   5    2    3 1
   6    2    4 1
   7    3    6 2
   8    4    5 2
   9    4    8 1
  10    5    6 1
  11    6    7 1
  12    7    9 ar
  13    7   10 ar
  14    8   18 1
  15    8   17 1
  16    8   28 1
  17    9   13 ar
  18    9   29 1
  19   10   11 ar
  20   10   30 1
  21   11   12 ar
  22   11   31 1
  23   12   13 ar
  24   13   32 1
  25   16   33 1
  26   16   34 1
  27   17   35 1
  28   17   36 1
  29   17   37 1
  30   18   19 ar
  31   18   23 ar
  32   19   20 ar
  33   19   38 1
  34   20   21 ar
  35   20   39 1
  36   21   22 ar
  37   21   24 1
  38   22   23 ar
  39   22   40 1
  40   23   41 1
  41   24   25 1
  42   24   42 1
  43   24   43 1
  44   25   26 1
  45   25   27 1
  46   25   44 1
  47   26   45 1
  48   26   46 1
  49   26   47 1
  50   27   48 1
  51   27   49 1
  52   27   50 1

#	End of record

