#	Name: ASD00451005
#	Creating user name:	WinNT
#	Creation time:	15. 06. 2019 18:36

#	Modifying user name:	WinNT
#	Modification time:	15. 06. 2019 18:36

#	Program:	/corina/corina34_cracker 3.40 0067  02.08.2006

@<TRIPOS>MOLECULE
ASD00451005
  45   48    0    0    0
SMALL
NO_CHARGES


@<TRIPOS>ATOM
   1 C1             0.0069     1.4670    -0.1680 C.ar    
   2 C2             0.0315     0.0815    -0.2369 C.ar    
   3 N3             1.2086     2.1898    -0.1435 N.am    
   4 C4            -1.2101     2.1389    -0.1289 C.ar    
   5 C5            -1.1523    -0.6303    -0.2620 C.ar    
   6 C6             2.2894     1.6794     0.4792 C.2     
   7 C7            -2.3936     1.4254    -0.1589 C.ar    
   8 C8            -2.3664     0.0392    -0.2178 C.ar    
   9 O9             2.1969     0.6404     1.1041 O.2     
  10 N10            3.4728     2.3205     0.4091 N.am    
  11 O11           -3.5305    -0.6625    -0.2477 O.3     
  12 C12            4.5629     1.8616     1.1580 C.ar    
  13 C13           -3.9196    -1.3005     0.8861 C.ar    
  14 C14            5.8583     2.1158     0.7280 C.ar    
  15 C15            4.3505     1.1561     2.3353 C.ar    
  16 C16           -5.1460    -1.9570     0.9532 C.ar    
  17 C17           -3.1008    -1.3218     2.0129 C.ar    
  18 C18            6.9322     1.6618     1.4688 C.ar    
  19 C19            5.4275     0.7045     3.0721 C.ar    
  20 N20           -6.1887    -2.1430     0.0480 N.am    
  21 C21           -5.5119    -2.6022     2.1349 C.ar    
  22 C22           -3.5308    -1.9812     3.1468 C.ar    
  23 C23            6.7178     0.9543     2.6383 C.ar    
  24 C24           -7.1463    -2.8701     0.6549 C.2     
  25 N25           -6.7666    -3.1563     1.9141 N.am    
  26 N26           -4.7009    -2.5902     3.1820 N.ar    
  27 Cl27           8.0696     0.3851     3.5669 Cl      
  28 O28           -8.1974    -3.2106     0.1449 O.2     
  29 H29            1.2618     3.0571    -0.5746 H       
  30 H30            3.5692     3.1000    -0.1601 H       
  31 H31           -6.2197    -1.8072    -0.8615 H       
  32 H32           -7.2806    -3.6684     2.5579 H       
  33 F33           -1.2356     3.4880    -0.0613 F       
  34 C34            8.3386     1.9370     1.0024 C.3     
  35 F35            8.2999     2.6614    -0.1938 F       
  36 F36            9.0157     2.6796     1.9757 F       
  37 F37            9.0057     0.7253     0.7924 F       
  38 H38            0.9763    -0.4406    -0.2714 H       
  39 H39           -1.1325    -1.7087    -0.3164 H       
  40 H40           -3.3392     1.9462    -0.1287 H       
  41 H41            6.0262     2.6677    -0.1850 H       
  42 H42            3.3438     0.9612     2.6744 H       
  43 H43           -2.1403    -0.8282     1.9994 H       
  44 H44            5.2628     0.1561     3.9878 H       
  45 H45           -2.8977    -1.9990     4.0216 H       
@<TRIPOS>BOND
   1    1    2 ar
   2    1    3 1
   3    1    4 ar
   4    2    5 ar
   5    2   38 1
   6    3   29 1
   7    3    6 am
   8    4   33 1
   9    4    7 ar
  10    5    8 ar
  11    5   39 1
  12    6    9 2
  13    6   10 am
  14    7    8 ar
  15    7   40 1
  16    8   11 1
  17   10   12 1
  18   10   30 1
  19   11   13 1
  20   12   14 ar
  21   12   15 ar
  22   13   16 ar
  23   13   17 ar
  24   14   18 ar
  25   14   41 1
  26   15   19 ar
  27   15   42 1
  28   16   20 1
  29   16   21 ar
  30   17   22 ar
  31   17   43 1
  32   18   23 ar
  33   18   34 1
  34   19   23 ar
  35   19   44 1
  36   20   31 1
  37   20   24 am
  38   21   26 ar
  39   21   25 1
  40   22   26 ar
  41   22   45 1
  42   23   27 1
  43   24   25 am
  44   24   28 2
  45   25   32 1
  46   34   35 1
  47   34   36 1
  48   34   37 1

#	End of record

