#	Name: ASD05303017
#	Creating user name:	WinNT
#	Creation time:	15. 06. 2019 20:58

#	Modifying user name:	WinNT
#	Modification time:	15. 06. 2019 20:58

#	Program:	/corina/corina34_cracker 3.40 0067  02.08.2006

@<TRIPOS>MOLECULE
ASD05303017
  35   37    0    0    0
SMALL
NO_CHARGES


@<TRIPOS>ATOM
   1 C1            -0.0156     1.3799     0.0002 C.ar    
   2 C2             0.0024    -0.0020    -0.0076 C.ar    
   3 C3             1.2093    -0.6791    -0.0177 C.ar    
   4 C4             2.3967     0.0310    -0.0202 C.ar    
   5 C5             2.3824     1.4242    -0.0158 C.ar    
   6 C6             1.1689     2.0939    -0.0040 C.ar    
   7 O7             3.5446     2.1253    -0.0266 O.3     
   8 N8             3.6321    -0.6426    -0.0220 N.am    
   9 C9             4.7121     1.4983     0.2671 C.ar    
  10 C10            4.7855     0.1071     0.2743 C.ar    
  11 C11            5.9790    -0.5273     0.5703 C.ar    
  12 C12            7.1038     0.2241     0.8627 C.ar    
  13 C13            7.0340     1.6044     0.8588 C.ar    
  14 C14            5.8434     2.2427     0.5623 C.ar    
  15 C15            3.7080    -1.9597    -0.2973 C.2     
  16 O16            4.7927    -2.5006    -0.3854 O.2     
  17 O17            2.5817    -2.6765    -0.4749 O.3     
  18 C18            2.7392    -4.0898    -0.7686 C.3     
  19 C19            2.7610    -4.8832     0.5394 C.3     
  20 C20            1.5697    -4.5644    -1.6335 C.3     
  21 H21           -0.9594     1.9049     0.0051 H       
  22 H22           -0.9260    -0.5539    -0.0054 H       
  23 H23            1.2242    -1.7590    -0.0233 H       
  24 H24            1.1483     3.1737     0.0012 H       
  25 H25            6.0325    -1.6060     0.5736 H       
  26 H26            8.0366    -0.2685     1.0944 H       
  27 H27            7.9136     2.1875     1.0884 H       
  28 H28            5.7952     3.3217     0.5607 H       
  29 H29            3.6750    -4.2474    -1.3048 H       
  30 H30            3.5941    -4.5451     1.1556 H       
  31 H31            1.8251    -4.7255     1.0756 H       
  32 H32            2.8792    -5.9441     0.3190 H       
  33 H33            1.5542    -3.9992    -2.5654 H       
  34 H34            1.6879    -5.6253    -1.8539 H       
  35 H35            0.6339    -4.4068    -1.0973 H       
@<TRIPOS>BOND
   1    1    2 ar
   2    1    6 ar
   3    1   21 1
   4    2    3 ar
   5    2   22 1
   6    3    4 ar
   7    3   23 1
   8    4    5 ar
   9    4    8 1
  10    5    6 ar
  11    5    7 1
  12    6   24 1
  13    7    9 1
  14    8   10 1
  15    8   15 am
  16    9   10 ar
  17    9   14 ar
  18   10   11 ar
  19   11   12 ar
  20   11   25 1
  21   12   13 ar
  22   12   26 1
  23   13   14 ar
  24   13   27 1
  25   14   28 1
  26   15   16 2
  27   15   17 1
  28   17   18 1
  29   18   19 1
  30   18   20 1
  31   18   29 1
  32   19   30 1
  33   19   31 1
  34   19   32 1
  35   20   33 1
  36   20   34 1
  37   20   35 1

#	End of record

