#	Name: ASD01812262
#	Creating user name:	WinNT
#	Creation time:	15. 06. 2019 19:28

#	Modifying user name:	WinNT
#	Modification time:	15. 06. 2019 19:28

#	Program:	/corina/corina34_cracker 3.40 0067  02.08.2006

@<TRIPOS>MOLECULE
ASD01812262
  58   62    0    0    0
SMALL
NO_CHARGES


@<TRIPOS>ATOM
   1 N1            -0.0178     1.4629     0.0101 N.am    
   2 C2             0.0021    -0.0041     0.0020 C.3     
   3 C3             1.4558    -0.4069    -0.0140 C.ar    
   4 C4             2.1948     0.7792    -0.0147 C.ar    
   5 C5             1.2486     1.9129     0.0004 C.2     
   6 C6             4.2312    -0.4957    -0.0423 C.ar    
   7 C7             3.5908     0.7231    -0.0288 C.ar    
   8 C8             5.7370    -0.5534    -0.0579 C.3     
   9 C9             6.2198    -0.6882    -1.4791 C.ar    
  10 C10            6.4856     0.4436    -2.2278 C.ar    
  11 C11            6.9282     0.3232    -3.5306 C.ar    
  12 C12            7.1062    -0.9357    -4.0883 C.ar    
  13 C13            6.8386    -2.0702    -3.3340 C.ar    
  14 C14            6.4016    -1.9434    -2.0299 C.ar    
  15 O15            1.5693     3.0853     0.0036 O.2     
  16 C16            2.0921    -1.6243    -0.0273 C.ar    
  17 C17            3.4886    -1.6790    -0.0416 C.ar    
  18 C18            4.1569    -2.9454    -0.0556 C.1     
  19 C19           -1.2203     2.2997     0.0206 C.3     
  20 N20            7.5549    -1.0611    -5.4105 N.pl3   
  21 N21            7.8666    -0.0069    -6.2788 N.2     
  22 C22            7.7691    -2.2211    -6.0716 C.2     
  23 C23            8.1960    -1.9119    -7.3179 C.2     
  24 C24            8.2484    -0.5176    -7.4217 C.2     
  25 O25           -1.2327     2.3711    -2.3950 O.3     
  26 C26           -2.4895     4.9402     0.0412 C.3     
  27 C27           -2.4766     4.0501     1.2856 C.3     
  28 C28           -1.2208     3.1762     1.2746 C.3     
  29 C29           -1.2332     3.1898    -1.2238 C.3     
  30 C30           -2.4890     4.0636    -1.2128 C.3     
  31 C31            1.2863    -2.8978    -0.0260 C.3     
  32 N32            4.6871    -3.9500    -0.0667 N.1     
  33 H33           -0.4837    -0.3901     0.8982 H       
  34 H34           -0.5007    -0.3805    -0.8888 H       
  35 H35            4.1677     1.6360    -0.0294 H       
  36 H36            6.1402     0.3609     0.3776 H       
  37 H37            6.0738    -1.4118     0.5232 H       
  38 H38            6.3465     1.4226    -1.7936 H       
  39 H39            7.1352     1.2075    -4.1150 H       
  40 H40            6.9758    -3.0508    -3.7653 H       
  41 H41            6.1978    -2.8256    -1.4411 H       
  42 H42           -2.1055     1.6637     0.0215 H       
  43 H43            7.6256    -3.2157    -5.6758 H       
  44 H44            8.4536    -2.6170    -8.0944 H       
  45 H45            8.5541     0.0411    -8.2940 H       
  46 H46           -1.2406     2.8698    -3.2235 H       
  47 H47           -3.3841     5.5627     0.0490 H       
  48 H48           -1.6043     5.5762     0.0403 H       
  49 H49           -2.4770     4.6745     2.1790 H       
  50 H50           -3.3618     3.4140     1.2865 H       
  51 H51           -1.2116     2.5421     2.1611 H       
  52 H52           -0.3356     3.8122     1.2737 H       
  53 H53           -0.3479     3.8258    -1.2247 H       
  54 H54           -3.3742     3.4276    -1.2119 H       
  55 H55           -2.4981     4.6978    -2.0993 H       
  56 H56            1.0813    -3.1991    -1.0532 H       
  57 H57            1.8493    -3.6835     0.4778 H       
  58 H58            0.3453    -2.7318     0.4986 H       
@<TRIPOS>BOND
   1    1    2 1
   2    1    5 am
   3    1   19 1
   4    2    3 1
   5    2   33 1
   6    2   34 1
   7    3    4 ar
   8    3   16 ar
   9    4    5 1
  10    4    7 ar
  11    5   15 2
  12    6    8 1
  13    6    7 ar
  14    6   17 ar
  15    7   35 1
  16    8    9 1
  17    8   36 1
  18    8   37 1
  19    9   10 ar
  20    9   14 ar
  21   10   11 ar
  22   10   38 1
  23   11   12 ar
  24   11   39 1
  25   12   13 ar
  26   12   20 1
  27   13   14 ar
  28   13   40 1
  29   14   41 1
  30   16   17 ar
  31   16   31 1
  32   17   18 1
  33   18   32 3
  34   19   29 1
  35   19   28 1
  36   19   42 1
  37   20   22 1
  38   20   21 1
  39   21   24 2
  40   22   23 2
  41   22   43 1
  42   23   24 1
  43   23   44 1
  44   24   45 1
  45   25   29 1
  46   25   46 1
  47   26   27 1
  48   26   30 1
  49   26   47 1
  50   26   48 1
  51   27   28 1
  52   27   49 1
  53   27   50 1
  54   28   51 1
  55   28   52 1
  56   29   30 1
  57   29   53 1
  58   30   54 1
  59   30   55 1
  60   31   56 1
  61   31   57 1
  62   31   58 1

#	End of record

