#	Name: ASD01040009
#	Creating user name:	WinNT
#	Creation time:	15. 06. 2019 18:58

#	Modifying user name:	WinNT
#	Modification time:	15. 06. 2019 18:58

#	Program:	/corina/corina34_cracker 3.40 0067  02.08.2006

@<TRIPOS>MOLECULE
ASD01040009
  47   50    0    0    0
SMALL
NO_CHARGES


@<TRIPOS>ATOM
   1 C1            -0.0184     1.5028     0.0103 C.3     
   2 C2             0.0021    -0.0041     0.0020 C.2     
   3 C3             0.0001    -0.6760    -1.1766 C.2     
   4 C4            -0.0222     0.0704    -2.4535 C.ar    
   5 C5             1.0655    -0.0023    -3.3257 C.ar    
   6 C6             1.0410     0.6947    -4.5145 C.ar    
   7 C7            -0.0639     1.4686    -4.8453 C.ar    
   8 O8            -0.0843     2.1541    -6.0180 O.3     
   9 C9            -1.1480     1.5431    -3.9805 C.ar    
  10 C10           -1.1333     0.8447    -2.7922 C.ar    
  11 C11            0.0201    -2.1551    -1.1847 C.ar    
  12 C12            1.1267    -2.8428    -0.6832 C.ar    
  13 C13            1.1417    -4.2210    -0.6926 C.ar    
  14 C14            0.0579    -4.9256    -1.2005 C.ar    
  15 O15            0.0766    -6.2840    -1.2084 O.3     
  16 C16           -1.0450    -4.2451    -1.6998 C.ar    
  17 C17           -1.0699    -2.8670    -1.6887 C.ar    
  18 C18            0.0242    -0.7456     1.2706 C.ar    
  19 C19           -1.0677    -1.5647     1.6218 C.ar    
  20 C20           -1.0693    -2.2583     2.7871 C.ar    
  21 C21            0.0277    -2.1659     3.6646 C.ar    
  22 C22            0.0465    -2.8755     4.8761 C.ar    
  23 C23            1.1214    -2.7675     5.7056 C.ar    
  24 C24            2.2075    -1.9613     5.3719 C.ar    
  25 C25            2.2254    -1.2580     4.2065 C.ar    
  26 C26            1.1335    -1.3452     3.3241 C.ar    
  27 C27            1.1231    -0.6391     2.1126 C.ar    
  28 H28            1.0042     1.8801     0.0026 H       
  29 H29           -0.5455     1.8639    -0.8728 H       
  30 H30           -0.5286     1.8543     0.9071 H       
  31 H31            1.9251    -0.6036    -3.0690 H       
  32 H32            1.8822     0.6393    -5.1896 H       
  33 H33           -0.4579     1.6564    -6.7581 H       
  34 H34           -2.0054     2.1459    -4.2412 H       
  35 H35           -1.9768     0.9032    -2.1202 H       
  36 H36            1.9701    -2.2955    -0.2888 H       
  37 H37            1.9974    -4.7537    -0.3048 H       
  38 H38           -0.2877    -6.6870    -0.4084 H       
  39 H39           -1.8860    -4.7966    -2.0936 H       
  40 H40           -1.9297    -2.3386    -2.0734 H       
  41 H41           -1.9136    -1.6407     0.9547 H       
  42 H42           -1.9133    -2.8819     3.0425 H       
  43 H43           -0.7882    -3.5041     5.1492 H       
  44 H44            1.1317    -3.3150     6.6364 H       
  45 H45            3.0471    -1.8930     6.0477 H       
  46 H46            3.0739    -0.6368     3.9604 H       
  47 H47            1.9605    -0.0144     1.8390 H       
@<TRIPOS>BOND
   1    1    2 1
   2    1   28 1
   3    1   29 1
   4    1   30 1
   5    2   18 1
   6    2    3 2
   7    3   11 1
   8    3    4 1
   9    4    5 ar
  10    4   10 ar
  11    5   31 1
  12    5    6 ar
  13    6   32 1
  14    6    7 ar
  15    7    8 1
  16    7    9 ar
  17    8   33 1
  18    9   10 ar
  19    9   34 1
  20   10   35 1
  21   11   17 ar
  22   11   12 ar
  23   12   13 ar
  24   12   36 1
  25   13   14 ar
  26   13   37 1
  27   14   16 ar
  28   14   15 1
  29   15   38 1
  30   16   39 1
  31   16   17 ar
  32   17   40 1
  33   18   27 ar
  34   18   19 ar
  35   19   20 ar
  36   19   41 1
  37   20   21 ar
  38   20   42 1
  39   21   22 ar
  40   21   26 ar
  41   22   23 ar
  42   22   43 1
  43   23   44 1
  44   23   24 ar
  45   24   45 1
  46   24   25 ar
  47   25   46 1
  48   25   26 ar
  49   26   27 ar
  50   27   47 1

#	End of record

