#	Name: ASD01410368
#	Creating user name:	WinNT
#	Creation time:	15. 06. 2019 19:17

#	Modifying user name:	WinNT
#	Modification time:	15. 06. 2019 19:17

#	Program:	/corina/corina34_cracker 3.40 0067  02.08.2006

@<TRIPOS>MOLECULE
ASD01410368
  59   63    0    0    0
SMALL
NO_CHARGES


@<TRIPOS>ATOM
   1 C1            -0.0173     1.4248     0.0099 C.3     
   2 O2             0.0021    -0.0041     0.0020 O.3     
   3 C3             0.6015    -0.6028    -1.0481 C.2     
   4 O4             1.0941     0.0713    -1.9327 O.2     
   5 C5             0.6589    -2.0609    -1.1227 C.2     
   6 C6             1.2575    -2.6290    -2.1721 C.2     
   7 C7             1.4314    -4.0530    -2.4202 C.ar    
   8 C8             1.2414    -4.5244    -3.7312 C.ar    
   9 C9             1.4379    -5.8525    -4.0304 C.ar    
  10 C10            1.8308    -6.7442    -3.0446 C.ar    
  11 C11            2.0056    -6.3104    -1.7482 C.ar    
  12 C12            1.7875    -4.9697    -1.4171 C.ar    
  13 C13            1.9013    -4.5728     0.0003 C.2     
  14 N14            1.1000    -3.6515     0.6351 N.pl3   
  15 C15            0.0464    -2.8693    -0.0110 C.3     
  16 C16            1.4732    -3.5788     1.9495 C.ar    
  17 C17            0.9776    -2.8346     3.0114 C.ar    
  18 C18            1.6157    -2.9948     4.2479 C.ar    
  19 C19            2.7028    -3.8612     4.4114 C.ar    
  20 C20            3.2005    -4.6037     3.3758 C.ar    
  21 C21            2.5724    -4.4615     2.1274 C.ar    
  22 C22            2.8144    -5.0669     0.8860 C.2     
  23 C23            3.8881    -6.0805     0.5845 C.3     
  24 C24            5.2612    -5.4695     0.8711 C.3     
  25 C25            6.3512    -6.4986     0.5650 C.3     
  26 C26            6.1486    -7.7334     1.4455 C.3     
  27 C27            4.7755    -8.3443     1.1589 C.3     
  28 C28            3.6854    -7.3153     1.4650 C.3     
  29 C29            1.1287    -2.2290     5.4099 C.2     
  30 O30            0.1864    -1.4717     5.2869 O.2     
  31 O31            1.7288    -2.3688     6.6085 O.3     
  32 C32            1.1964    -1.5837     7.7078 C.3     
  33 H33            1.0053     1.8021     0.0021 H       
  34 H34           -0.5445     1.7859    -0.8732 H       
  35 H35           -0.5275     1.7763     0.9067 H       
  36 H36            1.6562    -1.9586    -2.9191 H       
  37 H37            0.9386    -3.8388    -4.5089 H       
  38 H38            1.2845    -6.2030    -5.0403 H       
  39 H39            2.0000    -7.7815    -3.2930 H       
  40 H40            2.3126    -7.0095    -0.9843 H       
  41 H41           -0.4133    -2.2015     0.7177 H       
  42 H42           -0.7069    -3.5401    -0.4241 H       
  43 H43            0.1401    -2.1637     2.8897 H       
  44 H44            3.1630    -3.9459     5.3848 H       
  45 H45            4.0393    -5.2702     3.5122 H       
  46 H46            3.8307    -6.3693    -0.4650 H       
  47 H47            5.4055    -4.5899     0.2438 H       
  48 H48            5.3185    -5.1808     1.9206 H       
  49 H49            6.2939    -6.7874    -0.4845 H       
  50 H50            7.3295    -6.0633     0.7692 H       
  51 H51            6.9252    -8.4665     1.2274 H       
  52 H52            6.2059    -7.4446     2.4950 H       
  53 H53            4.7182    -8.6331     0.1094 H       
  54 H54            4.6311    -9.2240     1.7862 H       
  55 H55            3.7428    -7.0265     2.5145 H       
  56 H56            2.7072    -7.7505     1.2608 H       
  57 H57            1.7687    -1.7900     8.6122 H       
  58 H58            1.2691    -0.5234     7.4657 H       
  59 H59            0.1516    -1.8483     7.8707 H       
@<TRIPOS>BOND
   1    1    2 1
   2    1   33 1
   3    1   34 1
   4    1   35 1
   5    2    3 1
   6    3    4 2
   7    3    5 1
   8    5    6 2
   9    5   15 1
  10    6    7 1
  11    6   36 1
  12    7    8 ar
  13    7   12 ar
  14    8    9 ar
  15    8   37 1
  16    9   10 ar
  17    9   38 1
  18   10   11 ar
  19   10   39 1
  20   11   12 ar
  21   11   40 1
  22   12   13 1
  23   13   14 1
  24   13   22 2
  25   14   15 1
  26   14   16 1
  27   15   41 1
  28   15   42 1
  29   16   17 ar
  30   16   21 ar
  31   17   18 ar
  32   17   43 1
  33   18   19 ar
  34   18   29 1
  35   19   20 ar
  36   19   44 1
  37   20   21 ar
  38   20   45 1
  39   21   22 1
  40   22   23 1
  41   23   24 1
  42   23   28 1
  43   23   46 1
  44   24   25 1
  45   24   47 1
  46   24   48 1
  47   25   26 1
  48   25   49 1
  49   25   50 1
  50   26   27 1
  51   26   51 1
  52   26   52 1
  53   27   28 1
  54   27   53 1
  55   27   54 1
  56   28   55 1
  57   28   56 1
  58   29   30 2
  59   29   31 1
  60   31   32 1
  61   32   57 1
  62   32   58 1
  63   32   59 1

#	End of record

