#	Name: ASD01850009
#	Creating user name:	WinNT
#	Creation time:	15. 06. 2019 19:38

#	Modifying user name:	WinNT
#	Modification time:	15. 06. 2019 19:38

#	Program:	/corina/corina34_cracker 3.40 0067  02.08.2006

@<TRIPOS>MOLECULE
ASD01850009
  45   49    0    0    0
SMALL
NO_CHARGES


@<TRIPOS>ATOM
   1 F1             0.0200     0.0315    -0.4042 F       
   2 C2            -0.0077     1.3636    -0.1807 C.ar    
   3 C3             1.1729     2.0508     0.0495 C.ar    
   4 C4             1.1518     3.4167     0.2793 C.ar    
   5 F5             2.3069     4.0808     0.5027 F       
   6 C6            -0.0487     4.1015     0.2801 C.ar    
   7 C7            -1.2410     3.4143     0.0488 C.ar    
   8 C8            -1.2133     2.0393    -0.1878 C.ar    
   9 C9            -2.5285     4.1414     0.0489 C.2     
  10 O10           -2.5417     5.3539     0.1340 O.2     
  11 N11           -3.6874     3.4598    -0.0454 N.am    
  12 C12           -3.8433     2.0074    -0.2727 C.3     
  13 C13           -5.3692     1.7633    -0.3582 C.3     
  14 N14           -5.8983     3.0877    -0.7262 N.am    
  15 C15           -5.0431     4.0128     0.0636 C.3     
  16 C16           -5.4954     4.0755     1.4998 C.ar    
  17 C17           -4.5778     4.3250     2.5031 C.ar    
  18 C18           -4.9927     4.3825     3.8205 C.ar    
  19 C19           -6.3252     4.1909     4.1345 C.ar    
  20 C20           -7.2430     3.9423     3.1310 C.ar    
  21 C21           -6.8288     3.8891     1.8132 C.ar    
  22 C22           -5.1685     5.3455    -0.6194 C.ar    
  23 C23           -4.4961     6.5396    -0.5061 C.ar    
  24 C24           -4.8644     7.6202    -1.2901 C.ar    
  25 C25           -5.9085     7.5037    -2.1902 C.ar    
  26 C26           -6.5876     6.3090    -2.3164 C.ar    
  27 C27           -6.2211     5.2153    -1.5342 C.ar    
  28 C28           -6.7486     3.8312    -1.4356 C.2     
  29 O29           -7.7904     3.4403    -1.9250 O.2     
  30 H30            2.1132     1.5196     0.0501 H       
  31 H31           -0.0640     5.1663     0.4598 H       
  32 H32           -2.1332     1.5027    -0.3678 H       
  33 H33           -3.3622     1.7181    -1.2071 H       
  34 H34           -3.4179     1.4476     0.5603 H       
  35 H35           -5.5992     1.0286    -1.1298 H       
  36 H36           -5.7633     1.4458     0.6073 H       
  37 H37           -3.5368     4.4747     2.2578 H       
  38 H38           -4.2757     4.5767     4.6045 H       
  39 H39           -6.6493     4.2351     5.1638 H       
  40 H40           -8.2840     3.7922     3.3764 H       
  41 H41           -7.5458     3.6949     1.0293 H       
  42 H42           -3.6804     6.6350     0.1952 H       
  43 H43           -4.3349     8.5570    -1.1984 H       
  44 H44           -6.1935     8.3511    -2.7961 H       
  45 H45           -7.4022     6.2217    -3.0201 H       
@<TRIPOS>BOND
   1    1    2 1
   2    2    3 ar
   3    2    8 ar
   4    3    4 ar
   5    3   30 1
   6    4    5 1
   7    4    6 ar
   8    6    7 ar
   9    6   31 1
  10    7    8 ar
  11    7    9 1
  12    8   32 1
  13    9   10 2
  14    9   11 am
  15   11   12 1
  16   11   15 1
  17   12   13 1
  18   12   33 1
  19   12   34 1
  20   13   14 1
  21   13   35 1
  22   13   36 1
  23   14   15 1
  24   14   28 am
  25   15   16 1
  26   15   22 1
  27   16   17 ar
  28   16   21 ar
  29   17   18 ar
  30   17   37 1
  31   18   19 ar
  32   18   38 1
  33   19   20 ar
  34   19   39 1
  35   20   21 ar
  36   20   40 1
  37   21   41 1
  38   22   23 ar
  39   22   27 ar
  40   23   24 ar
  41   23   42 1
  42   24   25 ar
  43   24   43 1
  44   25   26 ar
  45   25   44 1
  46   26   27 ar
  47   26   45 1
  48   27   28 1
  49   28   29 2

#	End of record

