#	Name: ASD02562078
#	Creating user name:	WinNT
#	Creation time:	15. 06. 2019 20:25

#	Modifying user name:	WinNT
#	Modification time:	15. 06. 2019 20:25

#	Program:	/corina/corina34_cracker 3.40 0067  02.08.2006

@<TRIPOS>MOLECULE
ASD02562078
  46   49    0    0    0
SMALL
NO_CHARGES


@<TRIPOS>ATOM
   1 C1             0.7625     2.1188    -1.0888 C.2     
   2 C2             1.0147     1.1167    -2.0437 C.2     
   3 C3             2.0416     0.2587    -1.8756 C.2     
   4 N4             2.8525     0.3494    -0.7756 N.pl3   
   5 C5             2.6301     1.3197     0.1744 C.2     
   6 C6             1.5584     2.2225     0.0082 C.2     
   7 C7             3.9377    -0.3766    -0.3696 C.2     
   8 C8             4.3577     0.1680     0.8259 C.2     
   9 N9             3.5414     1.1950     1.1254 N.2     
  10 N10            4.5102    -1.4601    -1.0366 N.3     
  11 C11            5.5065    -0.2965     1.6381 C.ar    
  12 C12            5.8490    -1.1221    -1.5379 C.3     
  13 C13            6.6747    -2.4012    -1.6899 C.3     
  14 C14            8.0691    -2.0492    -2.2120 C.3     
  15 C15            7.9452    -1.3575    -3.5711 C.3     
  16 C16            7.1196    -0.0784    -3.4191 C.3     
  17 C17            5.7252    -0.4305    -2.8970 C.3     
  18 C18            5.4000    -1.4585     2.4012 C.ar    
  19 C19            6.4735    -1.8862     3.1559 C.ar    
  20 C20            7.6536    -1.1646     3.1571 C.ar    
  21 C21            7.7664    -0.0106     2.4023 C.ar    
  22 C22            6.7018     0.4244     1.6382 C.ar    
  23 Cl23           6.8445     1.8725     0.6915 Cl      
  24 C24            2.2987    -0.8097    -2.9069 C.3     
  25 Br25          -0.0920     0.9718    -3.5701 Br      
  26 H26           -0.0583     2.8065    -1.2293 H       
  27 H27            1.3724     2.9892     0.7457 H       
  28 H28            4.5417    -2.2750    -0.4423 H       
  29 H29            6.3425    -0.4527    -0.8332 H       
  30 H30            6.7629    -2.8939    -0.7217 H       
  31 H31            6.1812    -3.0706    -2.3946 H       
  32 H32            8.5626    -1.3798    -1.5073 H       
  33 H33            8.6573    -2.9604    -2.3203 H       
  34 H34            8.9386    -1.1067    -3.9430 H       
  35 H35            7.4517    -2.0269    -4.2758 H       
  36 H36            7.6130     0.5909    -2.7144 H       
  37 H37            7.0313     0.4143    -4.3873 H       
  38 H38            5.2317    -1.0999    -3.6017 H       
  39 H39            5.1370     0.4808    -2.7887 H       
  40 H40            4.4791    -2.0227     2.4020 H       
  41 H41            6.3918    -2.7862     3.7472 H       
  42 H42            8.4904    -1.5033     3.7500 H       
  43 H43            8.6904     0.5486     2.4072 H       
  44 H44            1.5052    -0.7919    -3.6540 H       
  45 H45            3.2576    -0.6243    -3.3908 H       
  46 H46            2.3191    -1.7856    -2.4218 H       
@<TRIPOS>BOND
   1    1    2 1
   2    1    6 2
   3    1   26 1
   4    2    3 2
   5    2   25 1
   6    3    4 1
   7    3   24 1
   8    4    5 1
   9    4    7 1
  10    5    6 1
  11    5    9 2
  12    6   27 1
  13    7    8 2
  14    7   10 1
  15    8    9 1
  16    8   11 1
  17   10   12 1
  18   10   28 1
  19   11   18 ar
  20   11   22 ar
  21   12   13 1
  22   12   17 1
  23   12   29 1
  24   13   14 1
  25   13   30 1
  26   13   31 1
  27   14   15 1
  28   14   32 1
  29   14   33 1
  30   15   16 1
  31   15   34 1
  32   15   35 1
  33   16   17 1
  34   16   36 1
  35   16   37 1
  36   17   38 1
  37   17   39 1
  38   18   19 ar
  39   18   40 1
  40   19   20 ar
  41   19   41 1
  42   20   21 ar
  43   20   42 1
  44   21   22 ar
  45   21   43 1
  46   22   23 1
  47   24   44 1
  48   24   45 1
  49   24   46 1

#	End of record

