#	Name: ASD04590842
#	Creating user name:	WinNT
#	Creation time:	15. 06. 2019 20:51

#	Modifying user name:	WinNT
#	Modification time:	15. 06. 2019 20:51

#	Program:	/corina/corina34_cracker 3.40 0067  02.08.2006

@<TRIPOS>MOLECULE
ASD04590842
  68   72    0    0    0
SMALL
NO_CHARGES


@<TRIPOS>ATOM
   1 N1            -0.0170     1.3232    -0.0111 N.ar    
   2 C2             0.0017    -0.0035    -0.0048 C.ar    
   3 N3             1.1299    -0.6949    -0.0118 N.ar    
   4 C4             2.3050    -0.0729    -0.0259 C.ar    
   5 C5             2.3189     1.3365    -0.0332 C.ar    
   6 C6             1.1072     2.0202    -0.0251 C.ar    
   7 N7             3.6031    -0.5196    -0.0356 N.pl3   
   8 C8             4.4823     0.5494    -0.0493 C.ar    
   9 C9             3.7313     1.7384    -0.0484 C.ar    
  10 C10            5.8681     0.6417    -0.0622 C.ar    
  11 N11            6.4613     1.8180    -0.0729 N.ar    
  12 C12            5.7851     2.9532    -0.0725 C.ar    
  13 C13            4.4064     2.9584    -0.0613 C.ar    
  14 N14           -1.2019    -0.6887     0.0098 N.pl3   
  15 C15           -2.4022     0.0122     0.1304 C.ar    
  16 N16           -2.3891     1.3195     0.3310 N.ar    
  17 N17           -3.4683     2.0042     0.4478 N.ar    
  18 C18           -4.6668     1.4483     0.3753 C.ar    
  19 C19           -4.7831     0.0733     0.1655 C.ar    
  20 C20           -3.6194    -0.6637     0.0338 C.ar    
  21 N21           -5.8099     2.2334     0.5087 N.3     
  22 C22            4.0018    -1.9293    -0.0316 C.3     
  23 C23           -5.4581     3.6431     0.7218 C.3     
  24 C24           -6.7271     4.4492     1.0083 C.3     
  25 C25           -7.6881     4.3170    -0.1764 C.3     
  26 C26           -8.0003     2.8359    -0.4075 C.3     
  27 C27           -6.6945     2.0766    -0.6529 C.3     
  28 N28           -8.9322     5.0409     0.1176 N.3     
  29 C29           -9.8314     5.0355    -1.0440 C.3     
  30 C30           -9.5986     4.4829     1.3018 C.3     
  31 C31            4.8457    -2.2171     1.2117 C.3     
  32 C32            2.7525    -2.8125    -0.0156 C.3     
  33 C33            4.8233    -2.2306    -1.2866 C.3     
  34 O34            3.1413    -4.1876    -0.0117 O.3     
  35 C35            2.0434    -5.1020     0.0031 C.3     
  36 H36            1.0849     3.0999    -0.0300 H       
  37 H37            6.4645    -0.2586    -0.0631 H       
  38 H38            6.3204     3.8911    -0.0816 H       
  39 H39            3.8597     3.8898    -0.0610 H       
  40 H40           -1.2103    -1.6559    -0.0637 H       
  41 H41           -5.7518    -0.4003     0.1036 H       
  42 H42           -3.6520    -1.7307    -0.1299 H       
  43 H43           -4.7777     3.7235     1.5696 H       
  44 H44           -4.9727     4.0354    -0.1718 H       
  45 H45           -7.2057     4.0663     1.9096 H       
  46 H46           -6.4674     5.4981     1.1510 H       
  47 H47           -7.2247     4.7353    -1.0699 H       
  48 H48           -8.4990     2.4276     0.4716 H       
  49 H49           -8.6503     2.7322    -1.2763 H       
  50 H50           -6.2032     2.4762    -1.5401 H       
  51 H51           -6.9120     1.0192    -0.8036 H       
  52 H52          -10.0792     4.0071    -1.3069 H       
  53 H53          -10.7445     5.5780    -0.7991 H       
  54 H54           -9.3377     5.5173    -1.8879 H       
  55 H55           -8.9357     4.5631     2.1634 H       
  56 H56          -10.5167     5.0372     1.4970 H       
  57 H57           -9.8380     3.4345     1.1239 H       
  58 H58            4.2605    -2.0025     2.1058 H       
  59 H59            5.1423    -3.2660     1.2147 H       
  60 H60            5.7357    -1.5879     1.2003 H       
  61 H61            2.1672    -2.5979     0.8785 H       
  62 H62            2.1512    -2.6075    -0.9013 H       
  63 H63            5.7133    -1.6014    -1.2980 H       
  64 H64            5.1199    -3.2794    -1.2837 H       
  65 H65            4.2220    -2.0255    -2.1724 H       
  66 H66            1.4433    -4.9349     0.8976 H       
  67 H67            1.4274    -4.9445    -0.8823 H       
  68 H68            2.4218    -6.1242     0.0052 H       
@<TRIPOS>BOND
   1    1    2 ar
   2    1    6 ar
   3    2    3 ar
   4    2   14 1
   5    3    4 ar
   6    4    5 ar
   7    4    7 1
   8    5    6 ar
   9    5    9 1
  10    6   36 1
  11    7    8 1
  12    7   22 1
  13    8    9 ar
  14    8   10 ar
  15    9   13 ar
  16   10   11 ar
  17   10   37 1
  18   11   12 ar
  19   12   13 ar
  20   12   38 1
  21   13   39 1
  22   14   15 1
  23   14   40 1
  24   15   16 ar
  25   15   20 ar
  26   16   17 ar
  27   17   18 ar
  28   18   19 ar
  29   18   21 1
  30   19   20 ar
  31   19   41 1
  32   20   42 1
  33   21   23 1
  34   21   27 1
  35   22   31 1
  36   22   32 1
  37   22   33 1
  38   23   24 1
  39   23   43 1
  40   23   44 1
  41   24   25 1
  42   24   45 1
  43   24   46 1
  44   25   26 1
  45   25   28 1
  46   25   47 1
  47   26   27 1
  48   26   48 1
  49   26   49 1
  50   27   50 1
  51   27   51 1
  52   28   29 1
  53   28   30 1
  54   29   52 1
  55   29   53 1
  56   29   54 1
  57   30   55 1
  58   30   56 1
  59   30   57 1
  60   31   58 1
  61   31   59 1
  62   31   60 1
  63   32   34 1
  64   32   61 1
  65   32   62 1
  66   33   63 1
  67   33   64 1
  68   33   65 1
  69   34   35 1
  70   35   66 1
  71   35   67 1
  72   35   68 1

#	End of record

