#	Name: ASD00660003
#	Creating user name:	WinNT
#	Creation time:	15. 06. 2019 18:36

#	Modifying user name:	WinNT
#	Modification time:	15. 06. 2019 18:36

#	Program:	/corina/corina34_cracker 3.40 0067  02.08.2006

@<TRIPOS>MOLECULE
ASD00660003
  63   66    0    0    0
SMALL
NO_CHARGES


@<TRIPOS>ATOM
   1 C1             9.1249    -2.5858     5.3388 C.ar    
   2 C2             8.0608    -3.4473     5.1047 C.ar    
   3 C3             7.1827    -3.2185     4.0699 C.ar    
   4 C4             7.3618    -2.1061     3.2431 C.ar    
   5 C5             8.4460    -1.2313     3.4844 C.ar    
   6 C6             9.3231    -1.4824     4.5383 C.ar    
   7 N7             6.5208    -1.8460     2.2146 N.2     
   8 C8             6.6886    -0.8035     1.4390 C.2     
   9 N9             7.7099     0.0911     1.6032 N.am    
  10 C10            8.6109    -0.0701     2.5997 C.2     
  11 C11            7.8242     1.1829     0.7329 C.ar    
  12 C12            8.4763     1.0370    -0.4843 C.ar    
  13 C13            8.5869     2.1152    -1.3404 C.ar    
  14 C14            8.0491     3.3389    -0.9865 C.ar    
  15 C15            7.3996     3.4875     0.2252 C.ar    
  16 C16            7.2807     2.4117     1.0831 C.ar    
  17 O17            9.5246     0.7185     2.7578 O.2     
  18 S18            5.5460    -0.5423     0.1233 S.3     
  19 C19            4.5622    -2.0558     0.2563 C.3     
  20 C20            3.4096    -2.0048    -0.7485 C.3     
  21 C21            2.4615    -0.8620    -0.3795 C.3     
  22 C22            1.2440    -0.8902    -1.3057 C.3     
  23 C23            0.2959     0.2525    -0.9367 C.3     
  24 C24            5.4338    -3.2491    -0.0392 C.2     
  25 N25            5.0610    -4.4755     0.3772 N.am    
  26 O26            6.4707    -3.1059    -0.6517 O.2     
  27 C27            5.9083    -5.6356     0.0899 C.3     
  28 C28            5.6470    -6.7278     1.1290 C.3     
  29 C29            6.5320    -7.9394     0.8290 C.3     
  30 C30            6.2070    -8.4751    -0.5668 C.3     
  31 C31            6.4683    -7.3829    -1.6059 C.3     
  32 C32            5.5834    -6.1713    -1.3059 C.3     
  33 H33            9.8004    -2.7802     6.1588 H       
  34 H34            7.9210    -4.3076     5.7424 H       
  35 H35            6.3592    -3.8956     3.8975 H       
  36 H36           10.1527    -0.8168     4.7256 H       
  37 H37            8.8968     0.0815    -0.7612 H       
  38 H38            9.0942     2.0024    -2.2872 H       
  39 H39            8.1369     4.1805    -1.6576 H       
  40 H40            6.9812     4.4448     0.4992 H       
  41 H41            6.7732     2.5283     2.0293 H       
  42 H42            4.1605    -2.1404     1.2661 H       
  43 H43            3.8073    -1.8380    -1.7495 H       
  44 H44            2.8661    -2.9493    -0.7262 H       
  45 H45            2.1348    -0.9802     0.6537 H       
  46 H46            2.9800     0.0903    -0.4899 H       
  47 H47            1.5707    -0.7720    -2.3389 H       
  48 H48            0.7254    -1.8426    -1.1953 H       
  49 H49           -0.5715     0.2325    -1.5966 H       
  50 H50           -0.0308     0.1344     0.0965 H       
  51 H51            0.8145     1.2049    -1.0471 H       
  52 H52            4.2317    -4.5901     0.8671 H       
  53 H53            6.9564    -5.3389     0.1303 H       
  54 H54            5.8785    -6.3462     2.1234 H       
  55 H55            4.5990    -7.0245     1.0886 H       
  56 H56            7.5800    -7.6427     0.8694 H       
  57 H57            6.3458    -8.7175     1.5692 H       
  58 H58            6.8375    -9.3382    -0.7806 H       
  59 H59            5.1590    -8.7718    -0.6073 H       
  60 H60            7.5164    -7.0862    -1.5655 H       
  61 H61            6.2368    -7.7645    -2.6003 H       
  62 H62            4.5353    -6.4680    -1.3463 H       
  63 H63            5.7696    -5.3932    -2.0461 H       
@<TRIPOS>BOND
   1    1    2 ar
   2    1    6 ar
   3    1   33 1
   4    2    3 ar
   5    2   34 1
   6    3    4 ar
   7    3   35 1
   8    4    5 ar
   9    4    7 1
  10    5    6 ar
  11    5   10 1
  12    6   36 1
  13    7    8 2
  14    8    9 1
  15    8   18 1
  16    9   10 am
  17    9   11 1
  18   10   17 2
  19   11   12 ar
  20   11   16 ar
  21   12   13 ar
  22   12   37 1
  23   13   14 ar
  24   13   38 1
  25   14   15 ar
  26   14   39 1
  27   15   16 ar
  28   15   40 1
  29   16   41 1
  30   18   19 1
  31   19   20 1
  32   19   24 1
  33   19   42 1
  34   20   21 1
  35   20   43 1
  36   20   44 1
  37   21   22 1
  38   21   45 1
  39   21   46 1
  40   22   23 1
  41   22   47 1
  42   22   48 1
  43   23   49 1
  44   23   50 1
  45   23   51 1
  46   24   25 am
  47   24   26 2
  48   25   27 1
  49   25   52 1
  50   27   28 1
  51   27   32 1
  52   27   53 1
  53   28   29 1
  54   28   54 1
  55   28   55 1
  56   29   30 1
  57   29   56 1
  58   29   57 1
  59   30   31 1
  60   30   58 1
  61   30   59 1
  62   31   32 1
  63   31   60 1
  64   31   61 1
  65   32   62 1
  66   32   63 1

#	End of record

