#	Name: ASD01884699
#	Creating user name:	WinNT
#	Creation time:	15. 06. 2019 19:48

#	Modifying user name:	WinNT
#	Modification time:	15. 06. 2019 19:48

#	Program:	/corina/corina34_cracker 3.40 0067  02.08.2006

@<TRIPOS>MOLECULE
ASD01884699
  42   43    0    0    0
SMALL
NO_CHARGES


@<TRIPOS>ATOM
   1 C1            -0.0168     1.3884     0.0097 C.2     
   2 C2             0.0021    -0.0041     0.0020 C.2     
   3 C3            -1.2095    -0.6965     0.0104 C.2     
   4 C4            -2.3831    -0.0157     0.0252 C.2     
   5 N5            -2.4093     1.3392     0.0327 N.am    
   6 C6            -1.2693     2.0558     0.0312 C.2     
   7 O7            -1.3129     3.2741     0.0383 O.2     
   8 C8            -3.6983     2.0352     0.0483 C.3     
   9 C9             1.2059     2.1337     0.0020 C.1     
  10 N10            2.1759     2.7249    -0.0041 N.1     
  11 C11            1.3105    -0.7515    -0.0155 C.3     
  12 C12           -4.1338     2.2698     1.4962 C.3     
  13 C13           -5.4800     2.9967     1.5124 C.3     
  14 C14           -5.9753     3.1206     2.9547 C.3     
  15 C15           -5.3132     4.3926     0.9087 C.3     
  16 N16            1.6901    -1.1066     1.3585 N.3     
  17 C17            2.7749    -1.8464     1.2747 C.2     
  18 C18            3.9076    -1.4957     1.9180 C.2     
  19 C19            3.9138    -0.3172     2.6866 C.2     
  20 C20            2.7283     0.4383     2.7432 C.2     
  21 C21            1.6469     0.0030     2.0642 C.2     
  22 H22           -1.2130    -1.7765     0.0046 H       
  23 H23           -3.3137    -0.5638     0.0308 H       
  24 H24           -3.5999     2.9937    -0.4613 H       
  25 H25           -4.4456     1.4275    -0.4619 H       
  26 H26            1.2023    -1.6595    -0.6087 H       
  27 H27            2.0835    -0.1207    -0.4544 H       
  28 H28           -4.2323     1.3113     2.0058 H       
  29 H29           -3.3866     2.8775     2.0064 H       
  30 H30           -6.2051     2.4317     0.9266 H       
  31 H31           -5.2502     3.6856     3.5406 H       
  32 H32           -6.9344     3.6385     2.9663 H       
  33 H33           -6.0942     2.1261     3.3848 H       
  34 H34           -4.9604     4.3043    -0.1188 H       
  35 H35           -6.2723     4.9105     0.9203 H       
  36 H36           -4.5881     4.9575     1.4946 H       
  37 H37            0.9560    -1.7035     1.7091 H       
  38 H38            2.7582    -2.7489     0.6817 H       
  39 H39            4.7937    -2.1088     1.8447 H       
  40 H40            4.8008    -0.0023     3.2162 H       
  41 H41            2.6845     1.3500     3.3204 H       
  42 H42            0.7314     0.5748     2.0999 H       
@<TRIPOS>BOND
   1    1    2 2
   2    1    9 1
   3    1    6 1
   4    2    3 1
   5    2   11 1
   6    3    4 2
   7    3   22 1
   8    4    5 1
   9    4   23 1
  10    5    8 1
  11    5    6 am
  12    6    7 2
  13    8   12 1
  14    8   24 1
  15    8   25 1
  16    9   10 3
  17   11   16 1
  18   11   26 1
  19   11   27 1
  20   12   13 1
  21   12   28 1
  22   12   29 1
  23   13   14 1
  24   13   15 1
  25   13   30 1
  26   14   31 1
  27   14   32 1
  28   14   33 1
  29   15   34 1
  30   15   35 1
  31   15   36 1
  32   16   17 2
  33   16   21 1
  34   16   37 1
  35   17   18 1
  36   17   38 1
  37   18   19 2
  38   18   39 1
  39   19   20 1
  40   19   40 1
  41   20   21 2
  42   20   41 1
  43   21   42 1

#	End of record

