#	Name: ASD02030701
#	Creating user name:	WinNT
#	Creation time:	15. 06. 2019 20:15

#	Modifying user name:	WinNT
#	Modification time:	15. 06. 2019 20:15

#	Program:	/corina/corina34_cracker 3.40 0067  02.08.2006

@<TRIPOS>MOLECULE
ASD02030701
  25   26    0    0    0
SMALL
NO_CHARGES


@<TRIPOS>ATOM
   1 N1            -0.0169     1.3957     0.0097 N.2     
   2 N2             0.0021    -0.0041     0.0020 N.am    
   3 C3             1.1646    -0.6797    -0.0123 C.2     
   4 N4             2.3448    -0.0325    -0.0200 N.am    
   5 C5             2.3757     1.3164    -0.0131 C.2     
   6 C6             1.1074     2.0610     0.0026 C.2     
   7 O7             1.1494    -1.8958    -0.0178 O.2     
   8 O8             3.4386     1.9089    -0.0192 O.2     
   9 O9             1.1051     3.4197     0.0094 O.3     
  10 C10           -1.2627    -0.7434     0.0101 C.3     
  11 C11           -1.6828    -1.0045     1.4336 C.ar    
  12 C12           -2.4795    -0.0908     2.0978 C.ar    
  13 C13           -2.8648    -0.3303     3.4036 C.ar    
  14 C14           -2.4538    -1.4837     4.0450 C.ar    
  15 C15           -1.6578    -2.3979     3.3805 C.ar    
  16 C16           -1.2760    -2.1605     2.0733 C.ar    
  17 H17            3.1737    -0.5362    -0.0303 H       
  18 H18            0.2211     3.8114     0.0197 H       
  19 H19           -2.0303    -0.1556    -0.4933 H       
  20 H20           -1.1322    -1.6923    -0.5101 H       
  21 H21           -2.8007     0.8104     1.5967 H       
  22 H22           -3.4867     0.3840     3.9228 H       
  23 H23           -2.7542    -1.6705     5.0654 H       
  24 H24           -1.3364    -3.2989     3.8818 H       
  25 H25           -0.6572    -2.8765     1.5529 H       
@<TRIPOS>BOND
   1    1    2 1
   2    1    6 2
   3    2    3 am
   4    2   10 1
   5    3    4 am
   6    3    7 2
   7    4    5 am
   8    4   17 1
   9    5    6 1
  10    5    8 2
  11    6    9 1
  12    9   18 1
  13   10   11 1
  14   10   19 1
  15   10   20 1
  16   11   12 ar
  17   11   16 ar
  18   12   13 ar
  19   12   21 1
  20   13   14 ar
  21   13   22 1
  22   14   15 ar
  23   14   23 1
  24   15   16 ar
  25   15   24 1
  26   16   25 1

#	End of record

