#	Name: ASD01200184
#	Creating user name:	WinNT
#	Creation time:	15. 06. 2019 19:08

#	Modifying user name:	WinNT
#	Modification time:	15. 06. 2019 19:08

#	Program:	/corina/corina34_cracker 3.40 0067  02.08.2006

@<TRIPOS>MOLECULE
ASD01200184
  57   59    0    0    0
SMALL
NO_CHARGES


@<TRIPOS>ATOM
   1 C1             0.9788     1.3640    -1.7312 C.2     
   2 C2             0.8672    -0.1355    -1.6318 C.3     
   3 O3             1.5850     1.9845    -0.8838 O.2     
   4 N4             0.4095     2.0150    -2.7650 N.am    
   5 S5             1.7366    -0.7094    -0.1467 S.3     
   6 N6             2.5853    -3.2583    -0.4085 N.am    
   7 C7             1.3699    -2.4857    -0.1200 C.3     
   8 C8             0.9324    -2.9069     1.2637 C.2     
   9 C9             1.8086    -3.8107     1.6904 C.2     
  10 C10            2.8322    -4.0334     0.6642 C.2     
  11 O11            3.7665    -4.8051     0.7669 O.2     
  12 C12            1.7575    -4.5030     3.0280 C.3     
  13 C13           -0.2695    -2.3981     2.0172 C.3     
  14 C14            3.3786    -3.2008    -1.6388 C.3     
  15 C15            4.4433    -2.1432    -1.5010 C.ar    
  16 C16            5.6844    -2.4756    -0.9902 C.ar    
  17 C17            6.6620    -1.5079    -0.8628 C.ar    
  18 C18            6.3976    -0.2016    -1.2480 C.ar    
  19 C19            5.1516     0.1294    -1.7603 C.ar    
  20 C20            4.1792    -0.8432    -1.8908 C.ar    
  21 O21            7.3576     0.7522    -1.1234 O.3     
  22 C22            7.0151     2.0756    -1.5399 C.3     
  23 C23            0.4223     3.4085    -2.8032 C.ar    
  24 C24           -0.0638     4.0712    -3.9247 C.ar    
  25 C25           -0.0452     5.4545    -3.9495 C.ar    
  26 C26            0.4608     6.1300    -2.8472 C.ar    
  27 C27            0.9271     5.4074    -1.7671 C.ar    
  28 N28            0.8919     4.0885    -1.7695 N.ar    
  29 C29           -0.5622     6.2107    -5.1462 C.3     
  30 C30           -2.0546     6.4948    -4.9642 C.3     
  31 H31           -0.1836    -0.4184    -1.5697 H       
  32 H32            1.3150    -0.5925    -2.5143 H       
  33 H33           -0.0091     1.5140    -3.4823 H       
  34 H34            0.5937    -2.7200    -0.8485 H       
  35 H35            1.1724    -5.4185     2.9411 H       
  36 H36            2.7699    -4.7479     3.3493 H       
  37 H37            1.2933    -3.8433     3.7611 H       
  38 H38           -1.1092    -3.0754     1.8617 H       
  39 H39           -0.0364    -2.3466     3.0808 H       
  40 H40           -0.5320    -1.4045     1.6542 H       
  41 H41            3.8485    -4.1687    -1.8137 H       
  42 H42            2.7290    -2.9551    -2.4788 H       
  43 H43            5.8895    -3.4926    -0.6901 H       
  44 H44            7.6311    -1.7680    -0.4635 H       
  45 H45            4.9434     1.1456    -2.0608 H       
  46 H46            3.2106    -0.5870    -2.2940 H       
  47 H47            6.7472     2.0661    -2.5964 H       
  48 H48            6.1688     2.4334    -0.9536 H       
  49 H49            7.8682     2.7367    -1.3873 H       
  50 H50           -0.4501     3.5139    -4.7652 H       
  51 H51            0.4898     7.2096    -2.8349 H       
  52 H52            1.3221     5.9285    -0.9075 H       
  53 H53           -0.0221     7.1526    -5.2419 H       
  54 H54           -0.4131     5.6133    -6.0457 H       
  55 H55           -2.5947     5.5528    -4.8685 H       
  56 H56           -2.2037     7.0921    -4.0647 H       
  57 H57           -2.4285     7.0417    -5.8297 H       
@<TRIPOS>BOND
   1    1    2 1
   2    1    3 2
   3    1    4 am
   4    2    5 1
   5    2   31 1
   6    2   32 1
   7    4   23 1
   8    4   33 1
   9    5    7 1
  10    6    7 1
  11    6   10 am
  12    6   14 1
  13    7    8 1
  14    7   34 1
  15    8    9 2
  16    8   13 1
  17    9   10 1
  18    9   12 1
  19   10   11 2
  20   12   35 1
  21   12   36 1
  22   12   37 1
  23   13   38 1
  24   13   39 1
  25   13   40 1
  26   14   15 1
  27   14   41 1
  28   14   42 1
  29   15   16 ar
  30   15   20 ar
  31   16   17 ar
  32   16   43 1
  33   17   18 ar
  34   17   44 1
  35   18   19 ar
  36   18   21 1
  37   19   20 ar
  38   19   45 1
  39   20   46 1
  40   21   22 1
  41   22   47 1
  42   22   48 1
  43   22   49 1
  44   23   24 ar
  45   23   28 ar
  46   24   25 ar
  47   24   50 1
  48   25   26 ar
  49   25   29 1
  50   26   27 ar
  51   26   51 1
  52   27   28 ar
  53   27   52 1
  54   29   30 1
  55   29   53 1
  56   29   54 1
  57   30   55 1
  58   30   56 1
  59   30   57 1

#	End of record

