#	Name: ASD03331078
#	Creating user name:	WinNT
#	Creation time:	15. 06. 2019 20:38

#	Modifying user name:	WinNT
#	Modification time:	15. 06. 2019 20:38

#	Program:	/corina/corina34_cracker 3.40 0067  02.08.2006

@<TRIPOS>MOLECULE
ASD03331078
  54   56    0    0    0
SMALL
NO_CHARGES


@<TRIPOS>ATOM
   1 N1            -0.0164     1.3557     0.0652 N.pl3   
   2 C2             0.0029    -0.0038     0.0363 C.2     
   3 C3             1.2396    -0.8638     0.0224 C.3     
   4 N4             2.1703    -0.3867     1.0572 N.3     
   5 C5             3.0625     0.6482     0.5315 C.3     
   6 C6             2.3511     1.5033    -0.5132 C.3     
   7 C7             1.1626     2.2241     0.1289 C.3     
   8 C8            -1.3235     1.7465     0.0361 C.2     
   9 N9            -2.0807     0.6747     0.0088 N.2     
  10 C10           -1.2922    -0.4229     0.0109 C.2     
  11 C11           -1.7519    -1.8226    -0.0108 C.2     
  12 O12           -0.9411    -2.7291    -0.0068 O.2     
  13 N13           -3.0710    -2.0984    -0.0351 N.am    
  14 C14           -5.0344    -3.5238    -0.0815 C.2     
  15 C15           -3.5280    -3.4901    -0.0567 C.3     
  16 C16           -2.9817    -4.1871    -1.3044 C.3     
  17 O17           -5.6115    -4.3913    -0.7023 O.2     
  18 N18           -5.7405    -2.5898     0.5861 N.am    
  19 C19           -7.2049    -2.6226     0.5619 C.3     
  20 C20           -3.0223    -4.2125     1.1937 C.3     
  21 C21            2.9368    -1.5012     1.6302 C.3     
  22 C22           -1.8064     3.1442     0.0359 C.ar    
  23 C23           -2.7908     3.5461    -0.8712 C.ar    
  24 C24           -3.2382     4.8532    -0.8662 C.ar    
  25 C25           -2.7125     5.7640     0.0353 C.ar    
  26 C26           -1.7351     5.3699     0.9371 C.ar    
  27 C27           -1.2852     4.0651     0.9452 C.ar    
  28 F28           -3.1530     7.0412     0.0359 F       
  29 F29           -3.3034     2.6584    -1.7514 F       
  30 Cl30          -1.0812     6.5186     2.0625 Cl      
  31 H31            0.9660    -1.8987     0.2277 H       
  32 H32            1.7174    -0.7992    -0.9551 H       
  33 H33            3.3934     1.2860     1.3512 H       
  34 H34            3.9312     0.1740     0.0748 H       
  35 H35            3.0476     2.2395    -0.9144 H       
  36 H36            1.9942     0.8653    -1.3217 H       
  37 H37            0.9630     3.1498    -0.4108 H       
  38 H38            1.3927     2.4503     1.1701 H       
  39 H39           -3.7176    -1.3755    -0.0382 H       
  40 H40           -1.8921    -4.1627    -1.2864 H       
  41 H41           -3.3217    -5.2225    -1.3204 H       
  42 H42           -3.3419    -3.6724    -2.1951 H       
  43 H43           -5.2790    -1.8960     1.0826 H       
  44 H44           -7.5966    -1.7951     1.1535 H       
  45 H45           -7.5535    -2.5307    -0.4668 H       
  46 H46           -7.5542    -3.5662     0.9810 H       
  47 H47           -3.4116    -3.7160     2.0825 H       
  48 H48           -3.3624    -5.2480     1.1776 H       
  49 H49           -1.9327    -4.1882     1.2116 H       
  50 H50            3.4551    -2.0336     0.8327 H       
  51 H51            3.6658    -1.1131     2.3415 H       
  52 H52            2.2582    -2.1840     2.1415 H       
  53 H53           -3.9988     5.1655    -1.5665 H       
  54 H54           -0.5276     3.7587     1.6513 H       
@<TRIPOS>BOND
   1    1    2 1
   2    1    7 1
   3    1    8 1
   4    2    3 1
   5    2   10 2
   6    3    4 1
   7    3   31 1
   8    3   32 1
   9    4    5 1
  10    4   21 1
  11    5    6 1
  12    5   33 1
  13    5   34 1
  14    6    7 1
  15    6   35 1
  16    6   36 1
  17    7   37 1
  18    7   38 1
  19    8    9 2
  20    8   22 1
  21    9   10 1
  22   10   11 1
  23   11   12 2
  24   11   13 am
  25   13   15 1
  26   13   39 1
  27   14   15 1
  28   14   17 2
  29   14   18 am
  30   15   16 1
  31   15   20 1
  32   16   40 1
  33   16   41 1
  34   16   42 1
  35   18   19 1
  36   18   43 1
  37   19   44 1
  38   19   45 1
  39   19   46 1
  40   20   47 1
  41   20   48 1
  42   20   49 1
  43   21   50 1
  44   21   51 1
  45   21   52 1
  46   22   23 ar
  47   22   27 ar
  48   23   24 ar
  49   23   29 1
  50   24   25 ar
  51   24   53 1
  52   25   26 ar
  53   25   28 1
  54   26   27 ar
  55   26   30 1
  56   27   54 1

#	End of record

