#	Name: ASD01910680
#	Creating user name:	WinNT
#	Creation time:	15. 06. 2019 19:56

#	Modifying user name:	WinNT
#	Modification time:	15. 06. 2019 19:56

#	Program:	/corina/corina34_cracker 3.40 0067  02.08.2006

@<TRIPOS>MOLECULE
ASD01910680
  57   60    0    0    0
SMALL
NO_CHARGES


@<TRIPOS>ATOM
   1 C1            12.4816    -1.9051     4.2716 C.ar    
   2 C2            13.1014    -2.0688     3.0401 C.ar    
   3 C3            12.3920    -1.7494     1.8962 C.ar    
   4 C4            11.0891    -1.2777     2.0179 C.ar    
   5 N5            10.5328    -1.1348     3.2111 N.ar    
   6 C6            11.1854    -1.4320     4.3187 C.ar    
   7 N7            10.3647    -0.9529     0.8768 N.3     
   8 C8             9.0192    -0.4772     1.2251 C.3     
   9 C9             8.3208     0.0390    -0.0374 C.3     
  10 N10            8.3616    -1.0181    -1.0593 N.am    
  11 C11            9.6585    -1.6409    -1.3648 C.3     
  12 C12           10.3042    -2.0910    -0.0500 C.3     
  13 C13            7.2404    -1.4055    -1.6989 C.2     
  14 C14            7.3210    -2.3785    -2.8064 C.ar    
  15 O15            6.1625    -0.9537    -1.3640 O.2     
  16 C16            6.3464    -3.3726    -2.9362 C.ar    
  17 C17            6.4171    -4.2838    -3.9679 C.ar    
  18 C18            7.4555    -4.2214    -4.8857 C.ar    
  19 C19            8.4401    -3.2270    -4.7658 C.ar    
  20 C20            8.3661    -2.3027    -3.7265 C.ar    
  21 O21            7.5201    -5.1210    -5.8986 O.3     
  22 C22            6.4856    -6.1050    -5.9594 C.3     
  23 C23            9.5133    -3.1607    -5.7116 C.1     
  24 C24           10.3931    -3.1062    -6.4869 C.1     
  25 C25           11.4663    -3.0399    -7.4327 C.ar    
  26 C26           12.4461    -2.0506    -7.3137 C.ar    
  27 C27           13.4787    -1.9905    -8.2268 C.ar    
  28 C28           13.5479    -2.9064    -9.2603 C.ar    
  29 C29           12.5791    -3.8934    -9.3873 C.ar    
  30 C30           11.5412    -3.9673    -8.4745 C.ar    
  31 O31           12.6530    -4.7905   -10.4055 O.3     
  32 C32           13.7536    -4.6590   -11.3074 C.3     
  33 H33           13.0065    -2.1496     5.1832 H       
  34 H34           14.1148    -2.4370     2.9765 H       
  35 H35           12.8437    -1.8644     0.9219 H       
  36 H36           10.6996    -1.3027     5.2746 H       
  37 H37            8.4419    -1.2983     1.6502 H       
  38 H38            9.0960     0.3296     1.9540 H       
  39 H39            7.2844     0.2862     0.1925 H       
  40 H40            8.8383     0.9247    -0.4060 H       
  41 H41            9.5066    -2.5043    -2.0125 H       
  42 H42           10.3046    -0.9167    -1.8610 H       
  43 H43           11.3130    -2.4545    -0.2459 H       
  44 H44            9.7090    -2.8895     0.3929 H       
  45 H45            5.5353    -3.4270    -2.2252 H       
  46 H46            5.6614    -5.0496    -4.0620 H       
  47 H47            9.1198    -1.5354    -3.6288 H       
  48 H48            6.4911    -6.6950    -5.0429 H       
  49 H49            5.5201    -5.6109    -6.0677 H       
  50 H50            6.6566    -6.7597    -6.8139 H       
  51 H51           12.3949    -1.3334    -6.5078 H       
  52 H52           14.2352    -1.2254    -8.1341 H       
  53 H53           14.3585    -2.8538    -9.9720 H       
  54 H54           10.7873    -4.7344    -8.5723 H       
  55 H55           13.6929    -5.4351   -12.0703 H       
  56 H56           13.7187    -3.6787   -11.7827 H       
  57 H57           14.6887    -4.7628   -10.7570 H       
@<TRIPOS>BOND
   1    1    2 ar
   2    1    6 ar
   3    1   33 1
   4    2    3 ar
   5    2   34 1
   6    3    4 ar
   7    3   35 1
   8    4    5 ar
   9    4    7 1
  10    5    6 ar
  11    6   36 1
  12    7    8 1
  13    7   12 1
  14    8    9 1
  15    8   37 1
  16    8   38 1
  17    9   10 1
  18    9   39 1
  19    9   40 1
  20   10   11 1
  21   10   13 am
  22   11   12 1
  23   11   41 1
  24   11   42 1
  25   12   43 1
  26   12   44 1
  27   13   14 1
  28   13   15 2
  29   14   16 ar
  30   14   20 ar
  31   16   17 ar
  32   16   45 1
  33   17   18 ar
  34   17   46 1
  35   18   19 ar
  36   18   21 1
  37   19   20 ar
  38   19   23 1
  39   20   47 1
  40   21   22 1
  41   22   48 1
  42   22   49 1
  43   22   50 1
  44   23   24 3
  45   24   25 1
  46   25   26 ar
  47   25   30 ar
  48   26   27 ar
  49   26   51 1
  50   27   28 ar
  51   27   52 1
  52   28   29 ar
  53   28   53 1
  54   29   30 ar
  55   29   31 1
  56   30   54 1
  57   31   32 1
  58   32   55 1
  59   32   56 1
  60   32   57 1

#	End of record

