#	Name: ASD01914011
#	Creating user name:	WinNT
#	Creation time:	15. 06. 2019 20:02

#	Modifying user name:	WinNT
#	Modification time:	15. 06. 2019 20:02

#	Program:	/corina/corina34_cracker 3.40 0067  02.08.2006

@<TRIPOS>MOLECULE
ASD01914011
  45   47    0    0    0
SMALL
NO_CHARGES


@<TRIPOS>ATOM
   1 C1            -0.0167     1.3779     0.0096 C.ar    
   2 C2             0.0021    -0.0041     0.0020 C.ar    
   3 C3             1.2099    -0.6820    -0.0132 C.ar    
   4 C4             2.3810     1.4110    -0.0131 C.ar    
   5 C5             1.1694     2.0866     0.0021 C.ar    
   6 O6             3.5481     2.1071    -0.0210 O.3     
   7 C7             4.7574     1.3459    -0.0367 C.3     
   8 C8             5.9394     2.2807    -0.0434 C.ar    
   9 N9             7.1608     1.7823    -0.0579 N.ar    
  10 C10            8.2272     2.5549    -0.0644 C.ar    
  11 C11            8.0971     3.9440    -0.0556 C.ar    
  12 C12            6.8134     4.5029    -0.0403 C.ar    
  13 C13            5.7258     3.6477    -0.0401 C.ar    
  14 C14            9.2945     4.8111    -0.0619 C.2     
  15 N15           10.5248     4.2611    -0.0763 N.am    
  16 O16            9.1693     6.0202    -0.0542 O.2     
  17 C17           11.7113     5.1204    -0.0825 C.3     
  18 C18            2.3995     0.0240    -0.0208 C.ar    
  19 F19            1.2262    -2.0329    -0.0202 F       
  20 C20           12.8968     4.3574     0.5121 C.3     
  21 C21           14.1359     5.2548     0.5055 C.3     
  22 C22           14.4620     5.6636    -0.9323 C.3     
  23 C23           13.2765     6.4266    -1.5269 C.3     
  24 C24           12.0374     5.5292    -1.5204 C.3     
  25 H25           -0.9596     1.9044     0.0169 H       
  26 H26           -0.9262    -0.5561     0.0083 H       
  27 H27            1.1533     3.1665     0.0084 H       
  28 H28            4.7998     0.7130     0.8498 H       
  29 H29            4.7825     0.7220    -0.9301 H       
  30 H30            9.2110     2.1094    -0.0762 H       
  31 H31            6.6757     5.5741    -0.0331 H       
  32 H32            4.7208     4.0429    -0.0285 H       
  33 H33           10.6247     3.2963    -0.0824 H       
  34 H34           11.5173     6.0121     0.5136 H       
  35 H35            3.3416    -0.5040    -0.0323 H       
  36 H36           12.6645     4.0662     1.5364 H       
  37 H37           13.0908     3.4657    -0.0841 H       
  38 H38           13.9419     6.1465     1.1017 H       
  39 H39           14.9804     4.7113     0.9291 H       
  40 H40           15.3448     6.3030    -0.9370 H       
  41 H41           14.6560     4.7720    -1.5285 H       
  42 H42           13.0825     7.3183    -0.9308 H       
  43 H43           13.5088     6.7179    -2.5513 H       
  44 H44           12.2314     4.6375    -2.1165 H       
  45 H45           11.1929     6.0728    -1.9440 H       
@<TRIPOS>BOND
   1    1    2 ar
   2    1    5 ar
   3    1   25 1
   4    2    3 ar
   5    2   26 1
   6    3   18 ar
   7    3   19 1
   8    4    5 ar
   9    4    6 1
  10    4   18 ar
  11    5   27 1
  12    6    7 1
  13    7    8 1
  14    7   28 1
  15    7   29 1
  16    8    9 ar
  17    8   13 ar
  18    9   10 ar
  19   10   11 ar
  20   10   30 1
  21   11   12 ar
  22   11   14 1
  23   12   13 ar
  24   12   31 1
  25   13   32 1
  26   14   15 am
  27   14   16 2
  28   15   17 1
  29   15   33 1
  30   17   20 1
  31   17   24 1
  32   17   34 1
  33   18   35 1
  34   20   21 1
  35   20   36 1
  36   20   37 1
  37   21   22 1
  38   21   38 1
  39   21   39 1
  40   22   23 1
  41   22   40 1
  42   22   41 1
  43   23   24 1
  44   23   42 1
  45   23   43 1
  46   24   44 1
  47   24   45 1

#	End of record

