#	Name: ASD01884020
#	Creating user name:	WinNT
#	Creation time:	15. 06. 2019 19:47

#	Modifying user name:	WinNT
#	Modification time:	15. 06. 2019 19:47

#	Program:	/corina/corina34_cracker 3.40 0067  02.08.2006

@<TRIPOS>MOLECULE
ASD01884020
  54   57    0    0    0
SMALL
NO_CHARGES


@<TRIPOS>ATOM
   1 C1            -0.7676     1.4115    -1.0612 C.2     
   2 C2            -0.7651     0.0060    -1.0934 C.2     
   3 C3            -1.1844    -0.6871     0.0102 C.2     
   4 C4            -1.6099     0.0190     1.1561 C.2     
   5 C5            -1.6041     1.3664     1.1650 C.2     
   6 N6            -1.1825     2.0670     0.0725 N.pl3   
   7 C7            -1.0704     3.3976    -0.2053 C.2     
   8 N8            -0.6178     3.5073    -1.4265 N.2     
   9 N9            -0.4305     2.3427    -1.9406 N.2     
  10 N10           -1.1914    -2.0799     0.0024 N.pl3   
  11 C11           -1.4077     4.5337     0.7256 C.3     
  12 Cl12          -0.2376    -0.8398    -2.5147 Cl      
  13 O13           -0.2511     4.8842     1.4881 O.3     
  14 C14           -2.4539    -2.8222     0.1213 C.3     
  15 C15           -2.3364    -3.8085     1.2890 C.3     
  16 C16           -1.0950    -4.6703     1.1036 C.3     
  17 C17            0.1662    -3.8191     1.0442 C.3     
  18 C18            0.0630    -2.8335    -0.1311 C.3     
  19 C19           -0.4641     5.9575     2.4072 C.3     
  20 C20           -0.9920    -5.7086     2.1940 C.ar    
  21 C21           -1.4005    -6.9193     1.6411 C.ar    
  22 O22           -1.7655    -6.7650     0.3394 O.3     
  23 C23           -1.2225    -5.5325    -0.1671 C.3     
  24 N24           -1.3930    -8.0136     2.3955 N.ar    
  25 C25           -1.0178    -7.9906     3.6579 C.ar    
  26 C26           -0.6113    -6.8177     4.2621 C.ar    
  27 C27           -0.5969    -5.6476     3.5127 C.ar    
  28 C28            0.8336     6.2454     3.1647 C.3     
  29 H29           -1.9419    -0.5231     2.0292 H       
  30 H30           -1.9317     1.8969     2.0469 H       
  31 H31           -1.7341     5.3956     0.1435 H       
  32 H32           -2.2076     4.2263     1.3992 H       
  33 H33           -3.2708    -2.1260     0.3116 H       
  34 H34           -2.6445    -3.3695    -0.8018 H       
  35 H35           -2.2582    -3.2555     2.2250 H       
  36 H36           -3.2202    -4.4458     1.3164 H       
  37 H37            0.2752    -3.2657     1.9770 H       
  38 H38            1.0332    -4.4639     0.9009 H       
  39 H39            0.0615    -3.3822    -1.0729 H       
  40 H40            0.9075    -2.1448    -0.1079 H       
  41 H41           -0.7709     6.8489     1.8600 H       
  42 H42           -1.2444     5.6796     3.1157 H       
  43 H43           -1.9075    -5.0722    -0.8792 H       
  44 H44           -0.2455    -5.6983    -0.6211 H       
  45 H45           -1.0286    -8.9059     4.2309 H       
  46 H46           -0.3091    -6.8099     5.2989 H       
  47 H47           -0.2838    -4.7126     3.9534 H       
  48 H48            0.6711     7.0641     3.8657 H       
  49 H49            1.1404     5.3540     3.7118 H       
  50 H50            1.6139     6.5233     2.4561 H       
  51 N51            7.1523    13.0730    11.0733 N.3     
  52 H52            7.1660    12.0641    11.0677 H       
  53 H53            8.0893    13.4473    11.0663 H       
  54 H54            6.6139    13.4315    10.2989 H       
@<TRIPOS>BOND
   1    1    2 1
   2    1    9 2
   3    1    6 1
   4    2    3 2
   5    2   12 1
   6    3    4 1
   7    3   10 1
   8    4    5 2
   9    4   29 1
  10    5    6 1
  11    5   30 1
  12    6    7 1
  13    7    8 2
  14    7   11 1
  15    8    9 1
  16   10   14 1
  17   10   18 1
  18   11   13 1
  19   11   31 1
  20   11   32 1
  21   13   19 1
  22   14   15 1
  23   14   33 1
  24   14   34 1
  25   15   16 1
  26   15   35 1
  27   15   36 1
  28   16   17 1
  29   16   20 1
  30   16   23 1
  31   17   18 1
  32   17   37 1
  33   17   38 1
  34   18   39 1
  35   18   40 1
  36   19   28 1
  37   19   41 1
  38   19   42 1
  39   20   27 ar
  40   20   21 ar
  41   21   22 1
  42   21   24 ar
  43   22   23 1
  44   23   43 1
  45   23   44 1
  46   24   25 ar
  47   25   26 ar
  48   25   45 1
  49   26   27 ar
  50   26   46 1
  51   27   47 1
  52   28   48 1
  53   28   49 1
  54   28   50 1
  55   51   52 1
  56   51   53 1
  57   51   54 1

#	End of record

