#	Name: ASD02500084
#	Creating user name:	WinNT
#	Creation time:	15. 06. 2019 20:22

#	Modifying user name:	WinNT
#	Modification time:	15. 06. 2019 20:22

#	Program:	/corina/corina34_cracker 3.40 0067  02.08.2006

@<TRIPOS>MOLECULE
ASD02500084
  56   60    0    0    0
SMALL
NO_CHARGES


@<TRIPOS>ATOM
   1 N1             1.0134    -0.4868    -2.3405 N.3     
   2 C2             0.4541    -1.6587    -1.6535 C.3     
   3 C3            -0.8031    -1.2428    -0.8824 C.3     
   4 N4            -1.7218    -0.5709    -1.8140 N.am    
   5 C5            -1.1958     0.5268    -2.6396 C.3     
   6 C6             0.0769     0.0412    -3.3416 C.3     
   7 C7            -3.0112    -0.9514    -1.9090 C.2     
   8 O8            -3.4045    -1.9253    -1.2963 O.2     
   9 C9            -3.9455    -0.1862    -2.7563 C.ar    
  10 C10           -4.8991    -0.8556    -3.5288 C.ar    
  11 C11           -5.7695    -0.1390    -4.3178 C.ar    
  12 C12           -5.7009     1.2511    -4.3476 C.ar    
  13 C13           -4.7520     1.9207    -3.5798 C.ar    
  14 C14           -3.8829     1.2101    -2.7840 C.ar    
  15 S15           -8.1848     1.5607    -5.1915 S.o2    
  16 C16           -9.0325     2.6427    -4.0891 C.ar    
  17 O17           -8.2810     0.2592    -4.6293 O.2     
  18 O18           -8.6440     1.8788    -6.4981 O.2     
  19 C19           -8.7677     2.5935    -2.7095 C.ar    
  20 C20           -9.4620     3.4737    -1.8429 C.ar    
  21 C21          -10.3976     4.3757    -2.3742 C.ar    
  22 C22          -10.6271     4.3945    -3.7163 C.ar    
  23 C23           -9.9421     3.5333    -4.5707 C.ar    
  24 N24           -7.8759     1.7327    -2.2084 N.ar    
  25 C25           -7.6254     1.6824    -0.9227 C.ar    
  26 C26           -8.2728     2.5195    -0.0163 C.ar    
  27 C27           -9.1953     3.4228    -0.4616 C.ar    
  28 C28            2.2421    -0.7868    -2.9171 C.ar    
  29 N29            2.7515    -2.0063    -2.8008 N.ar    
  30 C30            2.9393     0.1906    -3.6235 C.ar    
  31 N31            4.1051    -0.0986    -4.1696 N.ar    
  32 C32            4.6115    -1.3140    -4.0470 C.ar    
  33 C33            3.9204    -2.2878    -3.3511 C.ar    
  34 N34           -6.5815     1.9723    -5.1462 N.am    
  35 Na35          -5.8849     3.5682    -6.2839 Du      
  36 H36            0.1948    -2.4213    -2.3879 H       
  37 H37            1.1917    -2.0589    -0.9579 H       
  38 H38           -1.2861    -2.1266    -0.4655 H       
  39 H39           -0.5304    -0.5581    -0.0794 H       
  40 H40           -1.9383     0.8130    -3.3845 H       
  41 H41           -0.9608     1.3817    -2.0055 H       
  42 H42            0.5410     0.8739    -3.8702 H       
  43 H43           -0.1772    -0.7451    -4.0524 H       
  44 H44           -4.9524    -1.9341    -3.5067 H       
  45 H45           -6.5065    -0.6556    -4.9148 H       
  46 H46           -4.7009     2.9992    -3.6052 H       
  47 H47           -3.1470     1.7300    -2.1886 H       
  48 H48          -10.9323     5.0505    -1.7222 H       
  49 H49          -11.3469     5.0887    -4.1241 H       
  50 H50          -10.1416     3.5676    -5.6316 H       
  51 H51           -6.8983     0.9730    -0.5562 H       
  52 H52           -8.0452     2.4542     1.0374 H       
  53 H53           -9.7062     4.0796     0.2270 H       
  54 H54            2.5261     1.1833    -3.7243 H       
  55 H55            5.5658    -1.5476    -4.4955 H       
  56 H56            4.3377    -3.2791    -3.2530 H       
@<TRIPOS>BOND
   1    1    2 1
   2    1   28 1
   3    1    6 1
   4    2    3 1
   5    2   36 1
   6    2   37 1
   7    3    4 1
   8    3   38 1
   9    3   39 1
  10    4    5 1
  11    4    7 am
  12    5    6 1
  13    5   40 1
  14    5   41 1
  15    6   42 1
  16    6   43 1
  17    7    8 2
  18    7    9 1
  19    9   10 ar
  20    9   14 ar
  21   10   11 ar
  22   10   44 1
  23   11   12 ar
  24   11   45 1
  25   12   13 ar
  26   12   34 1
  27   13   14 ar
  28   13   46 1
  29   14   47 1
  30   15   16 1
  31   15   17 2
  32   15   18 2
  33   15   34 am
  34   16   19 ar
  35   16   23 ar
  36   19   20 ar
  37   19   24 ar
  38   20   21 ar
  39   20   27 ar
  40   21   22 ar
  41   21   48 1
  42   22   23 ar
  43   22   49 1
  44   23   50 1
  45   24   25 ar
  46   25   26 ar
  47   25   51 1
  48   26   27 ar
  49   26   52 1
  50   27   53 1
  51   28   29 ar
  52   28   30 ar
  53   29   33 ar
  54   30   31 ar
  55   30   54 1
  56   31   32 ar
  57   32   33 ar
  58   32   55 1
  59   33   56 1
  60   34   35 1

#	End of record

