#	Name: ASD08780003
#	Creating user name:	WinNT
#	Creation time:	15. 06. 2019 21:19

#	Modifying user name:	WinNT
#	Modification time:	15. 06. 2019 21:19

#	Program:	/corina/corina34_cracker 3.40 0067  02.08.2006

@<TRIPOS>MOLECULE
ASD08780003
  47   49    0    0    0
SMALL
NO_CHARGES


@<TRIPOS>ATOM
   1 C1             0.0112     1.3174     0.0926 C.ar    
   2 C2             0.1202    -0.0709     0.0481 C.ar    
   3 C3            -1.0259    -0.8524     0.0219 C.ar    
   4 C4            -2.2711    -0.2530     0.0400 C.ar    
   5 C5            -2.3783     1.1248     0.0838 C.ar    
   6 C6            -1.2406     1.9100     0.1163 C.ar    
   7 S7            -3.7255    -1.2471     0.0068 S.o2    
   8 O8            -4.7617    -0.4249    -0.5125 O.2     
   9 O9            -3.3508    -2.4870    -0.5775 O.2     
  10 N10           -4.1316    -1.5744     1.5785 N.am    
  11 N11            1.3828    -0.6756     0.0293 N.pl3   
  12 C12            1.5815    -1.8850     0.6762 C.2     
  13 S13            0.3975    -2.7006     1.6926 S.3     
  14 N14            2.6666    -2.5938     0.6220 N.2     
  15 C15            2.6757    -3.7344     1.3113 C.2     
  16 C16            1.5418    -4.0086     1.9823 C.2     
  17 C17            3.8478    -4.6363     1.3349 C.2     
  18 C18            5.0178    -4.4374     0.6909 C.2     
  19 N19            5.9041    -5.3922     0.8750 N.2     
  20 C20            5.5601    -6.3808     1.6298 C.2     
  21 S21            3.9693    -6.1582     2.2146 S.3     
  22 C22            6.4384    -7.5617     1.9540 C.3     
  23 C23            5.2853    -3.2265    -0.1654 C.3     
  24 O24            1.1311     2.0886     0.1183 O.3     
  25 C25            0.9448     3.5047     0.0716 C.3     
  26 C26            2.1587     4.1995     0.6918 C.3     
  27 C27            0.7900     3.9510    -1.3836 C.3     
  28 H28           -0.9451    -1.9288    -0.0130 H       
  29 H29           -3.3535     1.5889     0.0971 H       
  30 H30           -1.3280     2.9859     0.1505 H       
  31 H31           -3.5884    -1.2256     2.3025 H       
  32 H32           -4.9126    -2.1150     1.7751 H       
  33 H33            2.1184    -0.2481    -0.4365 H       
  34 H34            1.3633    -4.8816     2.5925 H       
  35 H35            7.0172    -7.3482     2.8527 H       
  36 H36            5.8171    -8.4413     2.1225 H       
  37 H37            7.1163    -7.7498     1.1214 H       
  38 H38            5.7164    -2.4356     0.4483 H       
  39 H39            5.9827    -3.4905    -0.9604 H       
  40 H40            4.3501    -2.8776    -0.6035 H       
  41 H41            0.0482     3.7719     0.6309 H       
  42 H42            3.0553     3.9323     0.1325 H       
  43 H43            2.0166     5.2796     0.6562 H       
  44 H44            2.2690     3.8815     1.7285 H       
  45 H45           -0.0748     3.4560    -1.8255 H       
  46 H46            0.6480     5.0311    -1.4193 H       
  47 H47            1.6866     3.6838    -1.9429 H       
@<TRIPOS>BOND
   1    1    2 ar
   2    1   24 1
   3    1    6 ar
   4    2    3 ar
   5    2   11 1
   6    3    4 ar
   7    3   28 1
   8    4    5 ar
   9    4    7 1
  10    5    6 ar
  11    5   29 1
  12    6   30 1
  13    7    8 2
  14    7    9 2
  15    7   10 am
  16   10   31 1
  17   10   32 1
  18   11   12 1
  19   11   33 1
  20   12   13 1
  21   12   14 2
  22   13   16 1
  23   14   15 1
  24   15   16 2
  25   15   17 1
  26   16   34 1
  27   17   18 2
  28   17   21 1
  29   18   19 1
  30   18   23 1
  31   19   20 2
  32   20   21 1
  33   20   22 1
  34   22   35 1
  35   22   36 1
  36   22   37 1
  37   23   38 1
  38   23   39 1
  39   23   40 1
  40   24   25 1
  41   25   26 1
  42   25   27 1
  43   25   41 1
  44   26   42 1
  45   26   43 1
  46   26   44 1
  47   27   45 1
  48   27   46 1
  49   27   47 1

#	End of record

