#	Name: ASD00780001
#	Creating user name:	WinNT
#	Creation time:	15. 06. 2019 18:37

#	Modifying user name:	WinNT
#	Modification time:	15. 06. 2019 18:37

#	Program:	/corina/corina34_cracker 3.40 0067  02.08.2006

@<TRIPOS>MOLECULE
ASD00780001
  37   39    0    0    0
SMALL
NO_CHARGES


@<TRIPOS>ATOM
   1 C1             1.2590     1.2447    -0.4822 C.ar    
   2 C2             1.2449    -0.1165    -0.2495 C.ar    
   3 C3             1.0803    -0.5979     1.0365 C.ar    
   4 C4             0.9290     0.2813     2.0928 C.ar    
   5 C5             0.9418     1.6439     1.8663 C.ar    
   6 C6             1.1078     2.1303     0.5767 C.ar    
   7 C7             1.4085    -1.0782    -1.3981 C.3     
   8 F8             2.7666    -1.3599    -1.5807 F       
   9 F9             0.7204    -2.2631    -1.1158 F       
  10 F10            0.8904    -0.5045    -2.5641 F       
  11 N11            1.1217     3.5119     0.3438 N.am    
  12 C12            2.2534     4.1907     0.4328 C.2     
  13 C13            2.1321     5.6328     0.1652 C.2     
  14 S14            0.4075     5.8621    -0.1857 S.3     
  15 C15           -0.0086     4.1523     0.0246 C.2     
  16 S16           -1.5630     3.4543    -0.1410 S.2     
  17 O17            3.3129     3.6636     0.7146 O.2     
  18 C18            3.1121     6.5705     0.1834 C.2     
  19 C19            2.7698     7.9934     0.0542 C.ar    
  20 C20            1.4775     8.4345     0.3657 C.ar    
  21 C21            1.1606     9.7575     0.2452 C.ar    
  22 C22            2.1254    10.6714    -0.1894 C.ar    
  23 C23            3.4160    10.2323    -0.5007 C.ar    
  24 C24            3.7372     8.9108    -0.3750 C.ar    
  25 C25            1.7812    12.1008    -0.3202 C.2     
  26 O26            0.6600    12.4828    -0.0503 O.2     
  27 O27            2.7106    12.9820    -0.7389 O.3     
  28 H28            1.3921     1.6201    -1.4861 H       
  29 H29            1.0696    -1.6628     1.2160 H       
  30 H30            0.8003    -0.0977     3.0959 H       
  31 H31            0.8229     2.3302     2.6917 H       
  32 H32            4.1440     6.2711     0.2928 H       
  33 H33            0.7319     7.7287     0.7007 H       
  34 H34            0.1641    10.0978     0.4853 H       
  35 H35            4.1603    10.9392    -0.8366 H       
  36 H36            4.7341     8.5720    -0.6152 H       
  37 H37            2.4383    13.9072    -0.8089 H       
@<TRIPOS>BOND
   1    1    2 ar
   2    1    6 ar
   3    1   28 1
   4    2    3 ar
   5    2    7 1
   6    3    4 ar
   7    3   29 1
   8    4    5 ar
   9    4   30 1
  10    5    6 ar
  11    5   31 1
  12    6   11 1
  13    7    8 1
  14    7    9 1
  15    7   10 1
  16   11   12 am
  17   11   15 am
  18   12   13 1
  19   12   17 2
  20   13   14 1
  21   13   18 2
  22   14   15 1
  23   15   16 2
  24   18   19 1
  25   18   32 1
  26   19   20 ar
  27   19   24 ar
  28   20   21 ar
  29   20   33 1
  30   21   22 ar
  31   21   34 1
  32   22   23 ar
  33   22   25 1
  34   23   24 ar
  35   23   35 1
  36   24   36 1
  37   25   26 2
  38   25   27 1
  39   27   37 1

#	End of record

