#	Name: ASD00460032
#	Creating user name:	WinNT
#	Creation time:	15. 06. 2019 18:36

#	Modifying user name:	WinNT
#	Modification time:	15. 06. 2019 18:36

#	Program:	/corina/corina34_cracker 3.40 0067  02.08.2006

@<TRIPOS>MOLECULE
ASD00460032
  72   76    0    0    0
SMALL
NO_CHARGES


@<TRIPOS>ATOM
   1 O1             0.2096    -1.2661    -0.1430 O.2     
   2 C2            -0.2455    -0.1751    -0.4275 C.2     
   3 N3             0.5766     0.8848    -0.5581 N.am    
   4 C4             2.0187     0.7224    -0.3572 C.3     
   5 C5             2.6825     0.3677    -1.6893 C.3     
   6 C6             4.1885     0.1981    -1.4795 C.3     
   7 C7             4.8248    -0.2706    -2.7626 C.ar    
   8 C8             4.5925     0.4154    -3.9401 C.ar    
   9 C9             5.1762    -0.0146    -5.1171 C.ar    
  10 C10            5.9925    -1.1302    -5.1166 C.ar    
  11 C11            6.2255    -1.8156    -3.9389 C.ar    
  12 C12            5.6453    -1.3831    -2.7611 C.ar    
  13 C13            4.7909     1.5183    -1.0730 C.ar    
  14 C14            5.5841     1.5976     0.0563 C.ar    
  15 C15            6.1366     2.8086     0.4292 C.ar    
  16 C16            5.8962     3.9403    -0.3275 C.ar    
  17 C17            5.1037     3.8607    -1.4573 C.ar    
  18 C18            4.5548     2.6488    -1.8326 C.ar    
  19 C19            0.0283     2.1993    -0.9010 C.3     
  20 C20           -0.3244     2.9552     0.3817 C.3     
  21 N21           -0.8742     4.2733     0.0379 N.3     
  22 C22           -1.4424     4.9325     1.2228 C.3     
  23 C23           -1.9488     6.3236     0.8326 C.3     
  24 O24           -2.9016     6.1988    -0.2266 O.3     
  25 C25           -2.3816     5.5616    -1.3966 C.3     
  26 C26           -1.8796     4.1628    -1.0290 C.3     
  27 N27           -1.5715    -0.0269    -0.6178 N.am    
  28 C28           -2.4187    -1.1212    -0.4887 C.2     
  29 N29           -3.7044    -1.0947    -0.6485 N.2     
  30 C30           -4.3561    -2.2451    -0.4842 C.2     
  31 C31           -3.5844    -3.3018    -0.1689 C.2     
  32 S32           -1.9099    -2.7591    -0.0903 S.3     
  33 Cl33          -4.1422    -4.9226     0.1059 Cl      
  34 C34           -5.8268    -2.3534    -0.6372 C.ar    
  35 C35           -6.6506    -1.2987    -0.2467 C.ar    
  36 C36           -8.0188    -1.4050    -0.3920 C.ar    
  37 C37           -8.5732    -2.5554    -0.9240 C.ar    
  38 C38           -7.7608    -3.6054    -1.3128 C.ar    
  39 C39           -6.3909    -3.5081    -1.1776 C.ar    
  40 H40            2.4398     1.6535     0.0220 H       
  41 H41            2.1976    -0.0768     0.3621 H       
  42 H42            2.2613    -0.5634    -2.0685 H       
  43 H43            2.5036     1.1669    -2.4086 H       
  44 H44            4.3655    -0.5387    -0.6959 H       
  45 H45            3.9548     1.2869    -3.9405 H       
  46 H46            4.9942     0.5209    -6.0372 H       
  47 H47            6.4479    -1.4665    -6.0363 H       
  48 H48            6.8630    -2.6874    -3.9386 H       
  49 H49            5.8273    -1.9186    -1.8411 H       
  50 H50            5.7719     0.7135     0.6475 H       
  51 H51            6.7558     2.8708     1.3119 H       
  52 H52            6.3273     4.8865    -0.0357 H       
  53 H53            4.9157     4.7449    -2.0483 H       
  54 H54            3.9356     2.5867    -2.7153 H       
  55 H55            0.7691     2.7663    -1.4647 H       
  56 H56           -0.8693     2.0720    -1.5061 H       
  57 H57           -1.0652     2.3882     0.9455 H       
  58 H58            0.5732     3.0825     0.9869 H       
  59 H59           -2.2711     4.3382     1.6076 H       
  60 H60           -0.6741     5.0268     1.9903 H       
  61 H61           -2.4222     6.7936     1.6946 H       
  62 H62           -1.1109     6.9353     0.4982 H       
  63 H63           -3.1681     5.4805    -2.1469 H       
  64 H64           -1.5563     6.1512    -1.7958 H       
  65 H65           -1.4305     3.6953    -1.9053 H       
  66 H66           -2.7153     3.5562    -0.6802 H       
  67 H67           -1.9346     0.8435    -0.8448 H       
  68 H68           -6.2188    -0.4003     0.1690 H       
  69 H69           -8.6579    -0.5887    -0.0895 H       
  70 H70           -9.6445    -2.6342    -1.0358 H       
  71 H71           -8.1992    -4.5012    -1.7271 H       
  72 H72           -5.7576    -4.3285    -1.4815 H       
@<TRIPOS>BOND
   1    1    2 2
   2    2    3 am
   3    2   27 am
   4    3    4 1
   5    3   19 1
   6    4    5 1
   7    4   40 1
   8    4   41 1
   9    5    6 1
  10    5   42 1
  11    5   43 1
  12    6    7 1
  13    6   13 1
  14    6   44 1
  15    7    8 ar
  16    7   12 ar
  17    8    9 ar
  18    8   45 1
  19    9   10 ar
  20    9   46 1
  21   10   11 ar
  22   10   47 1
  23   11   12 ar
  24   11   48 1
  25   12   49 1
  26   13   14 ar
  27   13   18 ar
  28   14   15 ar
  29   14   50 1
  30   15   16 ar
  31   15   51 1
  32   16   17 ar
  33   16   52 1
  34   17   18 ar
  35   17   53 1
  36   18   54 1
  37   19   20 1
  38   19   55 1
  39   19   56 1
  40   20   21 1
  41   20   57 1
  42   20   58 1
  43   21   22 1
  44   21   26 1
  45   22   23 1
  46   22   59 1
  47   22   60 1
  48   23   24 1
  49   23   61 1
  50   23   62 1
  51   24   25 1
  52   25   26 1
  53   25   63 1
  54   25   64 1
  55   26   65 1
  56   26   66 1
  57   27   28 1
  58   27   67 1
  59   28   29 2
  60   28   32 1
  61   29   30 1
  62   30   31 2
  63   30   34 1
  64   31   32 1
  65   31   33 1
  66   34   35 ar
  67   34   39 ar
  68   35   36 ar
  69   35   68 1
  70   36   37 ar
  71   36   69 1
  72   37   38 ar
  73   37   70 1
  74   38   39 ar
  75   38   71 1
  76   39   72 1

#	End of record

