#	Name: ASD03731452
#	Creating user name:	WinNT
#	Creation time:	15. 06. 2019 20:45

#	Modifying user name:	WinNT
#	Modification time:	15. 06. 2019 20:45

#	Program:	/corina/corina34_cracker 3.40 0067  02.08.2006

@<TRIPOS>MOLECULE
ASD03731452
  60   65    0    0    0
SMALL
NO_CHARGES


@<TRIPOS>ATOM
   1 N1            -0.0177     1.4653     0.0070 N.am    
   2 C2             0.0025    -0.0038     0.0052 C.3     
   3 C3             0.8525    -0.4838    -1.1755 C.3     
   4 C4             2.2370     0.1638    -1.0988 C.3     
   5 C5             2.0964     1.6849    -1.1917 C.3     
   6 C6             1.2605     2.1895    -0.0112 C.3     
   7 C7            -1.1868     2.1359     0.0193 C.2     
   8 O8            -2.2367     1.5290    -0.0679 O.2     
   9 N9            -1.1919     3.4792     0.1284 N.am    
  10 C10           -2.4534     4.2174     0.0284 C.3     
  11 C11           -2.1818     5.7149     0.1852 C.3     
  12 C12           -3.4993     6.4858     0.0808 C.3     
  13 O13            2.2746    10.6283    -1.0113 O.3     
  14 C14            2.9395    11.9042    -1.0676 C.3     
  15 O15            1.9529    12.7791    -1.6455 O.3     
  16 C16            0.7441    12.2384    -1.3119 C.ar    
  17 C17            0.9425    10.9156    -0.9230 C.ar    
  18 C18           -0.5300    12.7770    -1.3075 C.ar    
  19 C19           -1.6205    12.0051    -0.9181 C.ar    
  20 C20           -1.4109    10.6824    -0.5397 C.ar    
  21 C21           -0.1409    10.1443    -0.5371 C.ar    
  22 O22           -2.9390    12.3420    -0.8267 O.3     
  23 C23           -2.7635    10.1121    -0.2067 C.3     
  24 C24           -3.7353    11.1417    -0.7992 C.3     
  25 N25           -3.2392     7.9197     0.2310 N.am    
  26 C26           -2.9657     8.7466    -0.7978 C.2     
  27 C27           -2.9627     9.9398     1.2700 C.ar    
  28 C28           -2.9152    10.8011     2.3433 C.ar    
  29 C29           -3.1519    10.3286     3.6219 C.ar    
  30 C30           -3.4355     8.9894     3.8193 C.ar    
  31 C31           -3.4832     8.1226     2.7476 C.ar    
  32 C32           -3.2467     8.5894     1.4569 C.ar    
  33 O33           -2.8968     8.4466    -1.9710 O.2     
  34 H34            0.4361    -0.3644     0.9380 H       
  35 H35           -1.0141    -0.3832    -0.0983 H       
  36 H36            0.9552    -1.5681    -1.1328 H       
  37 H37            0.3695    -0.2002    -2.1105 H       
  38 H38            2.7094    -0.1001    -0.1526 H       
  39 H39            2.8520    -0.1951    -1.9241 H       
  40 H40            3.0844     2.1442    -1.1605 H       
  41 H41            1.6016     1.9481    -2.1266 H       
  42 H42            1.0740     3.2573    -0.1255 H       
  43 H43            1.7967     2.0078     0.9203 H       
  44 H44           -0.3604     3.9573     0.2730 H       
  45 H45           -2.9077     4.0304    -0.9446 H       
  46 H46           -3.1312     3.8867     0.8154 H       
  47 H47           -1.7276     5.9019     1.1583 H       
  48 H48           -1.5040     6.0456    -0.6018 H       
  49 H49           -3.9535     6.2989    -0.8922 H       
  50 H50           -4.1771     6.1551     0.8678 H       
  51 H51            3.2096    12.2398    -0.0664 H       
  52 H52            3.8221    11.8482    -1.7049 H       
  53 H53           -0.6795    13.8034    -1.6084 H       
  54 H54            0.0089     9.1187    -0.2336 H       
  55 H55           -4.6050    11.2689    -0.1546 H       
  56 H56           -4.0372    10.8543    -1.8063 H       
  57 H57           -2.6934    11.8464     2.1868 H       
  58 H58           -3.1157    11.0041     4.4639 H       
  59 H59           -3.6202     8.6206     4.8175 H       
  60 H60           -3.7048     7.0780     2.9098 H       
@<TRIPOS>BOND
   1    1    2 1
   2    1    6 1
   3    1    7 am
   4    2    3 1
   5    2   34 1
   6    2   35 1
   7    3    4 1
   8    3   36 1
   9    3   37 1
  10    4    5 1
  11    4   38 1
  12    4   39 1
  13    5    6 1
  14    5   40 1
  15    5   41 1
  16    6   42 1
  17    6   43 1
  18    7    8 2
  19    7    9 am
  20    9   10 1
  21    9   44 1
  22   10   11 1
  23   10   45 1
  24   10   46 1
  25   11   12 1
  26   11   47 1
  27   11   48 1
  28   12   25 1
  29   12   49 1
  30   12   50 1
  31   13   14 1
  32   13   17 1
  33   14   15 1
  34   14   51 1
  35   14   52 1
  36   15   16 1
  37   16   17 ar
  38   16   18 ar
  39   17   21 ar
  40   18   19 ar
  41   18   53 1
  42   19   20 ar
  43   19   22 1
  44   20   21 ar
  45   20   23 1
  46   21   54 1
  47   22   24 1
  48   23   24 1
  49   23   26 1
  50   23   27 1
  51   24   55 1
  52   24   56 1
  53   25   26 am
  54   25   32 1
  55   26   33 2
  56   27   28 ar
  57   27   32 ar
  58   28   29 ar
  59   28   57 1
  60   29   30 ar
  61   29   58 1
  62   30   31 ar
  63   30   59 1
  64   31   32 ar
  65   31   60 1

#	End of record

