#	Name: ASD05313121
#	Creating user name:	WinNT
#	Creation time:	15. 06. 2019 20:58

#	Modifying user name:	WinNT
#	Modification time:	15. 06. 2019 20:58

#	Program:	/corina/corina34_cracker 3.40 0067  02.08.2006

@<TRIPOS>MOLECULE
ASD05313121
  37   40    0    0    0
SMALL
NO_CHARGES


@<TRIPOS>ATOM
   1 C1            -0.0720     0.8166     1.0255 C.2     
   2 C2             0.1141    -0.6196     0.5975 C.3     
   3 N3             0.9291     1.7294     1.0519 N.pl3   
   4 N4             1.4571    -0.7188    -0.0047 N.am    
   5 C5             2.5714    -0.0368     0.6711 C.3     
   6 C6             2.3158     1.4751     0.6650 C.3     
   7 N7            -0.9051     2.6390     1.7110 N.2     
   8 N8            -1.1579     1.4071     1.4289 N.2     
   9 C9             0.3707     2.8890     1.4973 C.2     
  10 C10            2.9853     5.4445     1.6342 C.ar    
  11 N11            2.3667     4.2970     1.4510 N.ar    
  12 C12            1.0636     4.1792     1.7043 C.ar    
  13 C13            0.3622     5.2969     2.1690 C.ar    
  14 C14            1.0571     6.4798     2.3452 C.ar    
  15 N15            2.3523     6.5153     2.0708 N.ar    
  16 C16            1.6574    -1.4148    -1.1413 C.2     
  17 O17            2.7490    -1.4040    -1.6763 O.2     
  18 C18            0.5502    -2.1910    -1.7373 C.ar    
  19 C19            0.3187    -2.1397    -3.1144 C.ar    
  20 C20           -0.7182    -2.8680    -3.6639 C.ar    
  21 C21           -1.5259    -3.6458    -2.8542 C.ar    
  22 C22           -1.3017    -3.7002    -1.4898 C.ar    
  23 C23           -0.2657    -2.9833    -0.9281 C.ar    
  24 Cl24           1.3311    -1.1629    -4.1315 Cl      
  25 H25            0.0453    -1.2778     1.4636 H       
  26 H26           -0.6440    -0.8899    -0.1376 H       
  27 H27            2.6440    -0.3897     1.6998 H       
  28 H28            3.5019    -0.2509     0.1454 H       
  29 H29            2.4932     1.8705    -0.3351 H       
  30 H30            2.9865     1.9607     1.3739 H       
  31 H31            4.0429     5.5094     1.4249 H       
  32 H32           -0.6945     5.2378     2.3842 H       
  33 H33            0.5496     7.3638     2.7020 H       
  34 H34           -0.8989    -2.8298    -4.7280 H       
  35 H35           -2.3356    -4.2131    -3.2889 H       
  36 H36           -1.9369    -4.3092    -0.8636 H       
  37 H37           -0.0892    -3.0312     0.1363 H       
@<TRIPOS>BOND
   1    1    2 1
   2    1    3 1
   3    1    8 2
   4    2    4 1
   5    2   25 1
   6    2   26 1
   7    3    6 1
   8    3    9 1
   9    4    5 1
  10    4   16 am
  11    5    6 1
  12    5   27 1
  13    5   28 1
  14    6   29 1
  15    6   30 1
  16    7    8 1
  17    7    9 2
  18    9   12 1
  19   10   11 ar
  20   10   15 ar
  21   10   31 1
  22   11   12 ar
  23   12   13 ar
  24   13   14 ar
  25   13   32 1
  26   14   15 ar
  27   14   33 1
  28   16   17 2
  29   16   18 1
  30   18   19 ar
  31   18   23 ar
  32   19   20 ar
  33   19   24 1
  34   20   21 ar
  35   20   34 1
  36   21   22 ar
  37   21   35 1
  38   22   23 ar
  39   22   36 1
  40   23   37 1

#	End of record

