#	Name: ASD01850129
#	Creating user name:	WinNT
#	Creation time:	15. 06. 2019 19:38

#	Modifying user name:	WinNT
#	Modification time:	15. 06. 2019 19:38

#	Program:	/corina/corina34_cracker 3.40 0067  02.08.2006

@<TRIPOS>MOLECULE
ASD01850129
  37   39    0    0    0
SMALL
NO_CHARGES


@<TRIPOS>ATOM
   1 F1             0.0021    -0.0041     0.0020 F       
   2 C2            -0.0169     1.3948     0.0097 C.3     
   3 F3             1.2956     1.8790    -0.0002 F       
   4 F4            -0.6935     1.8582    -1.1237 F       
   5 O5            -0.6858     1.8556     1.1854 O.3     
   6 C6            -0.1526     1.4908     2.3821 C.ar    
   7 C7             0.9947     0.7098     2.4224 C.ar    
   8 C8             1.5477     0.3321     3.6318 C.ar    
   9 C9             0.9601     0.7301     4.8249 C.ar    
  10 N10            1.3140     0.4863     6.1524 N.am    
  11 C11            2.4759    -0.3050     6.5650 C.3     
  12 C12            3.6916     0.6123     6.7115 C.3     
  13 O13            3.4654     1.5363     7.7779 O.3     
  14 C14            4.4561     2.4284     8.0418 C.ar    
  15 C15            5.6194     2.4186     7.2861 C.ar    
  16 C16            6.6248     3.3268     7.5561 C.ar    
  17 C17            6.4724     4.2448     8.5787 C.ar    
  18 C18            5.3141     4.2563     9.3337 C.ar    
  19 C19            4.3033     3.3542     9.0637 C.ar    
  20 C20            0.4538     1.0698     7.0046 C.2     
  21 O21            0.5071     1.0312     8.2160 O.2     
  22 C22           -0.5838     1.7780     6.1851 C.2     
  23 O23           -1.5310     2.4218     6.5862 O.2     
  24 C24           -0.2001     1.5200     4.7845 C.ar    
  25 C25           -0.7504     1.9029     3.5616 C.ar    
  26 H26            1.4594     0.3941     1.5000 H       
  27 H27            2.4403    -0.2756     3.6485 H       
  28 H28            2.2669    -0.7865     7.5203 H       
  29 H29            2.6833    -1.0656     5.8124 H       
  30 H30            4.5748     0.0127     6.9315 H       
  31 H31            3.8470     1.1608     5.7824 H       
  32 H32            5.7392     1.7013     6.4877 H       
  33 H33            7.5306     3.3196     6.9681 H       
  34 H34            7.2596     4.9538     8.7885 H       
  35 H35            5.1976     4.9741    10.1322 H       
  36 H36            3.3968     3.3665     9.6508 H       
  37 H37           -1.6404     2.5142     3.5344 H       
@<TRIPOS>BOND
   1    1    2 1
   2    2    3 1
   3    2    4 1
   4    2    5 1
   5    5    6 1
   6    6   25 ar
   7    6    7 ar
   8    7    8 ar
   9    7   26 1
  10    8    9 ar
  11    8   27 1
  12    9   24 ar
  13    9   10 1
  14   10   11 1
  15   10   20 am
  16   11   12 1
  17   11   28 1
  18   11   29 1
  19   12   13 1
  20   12   30 1
  21   12   31 1
  22   13   14 1
  23   14   19 ar
  24   14   15 ar
  25   15   16 ar
  26   15   32 1
  27   16   17 ar
  28   16   33 1
  29   17   18 ar
  30   17   34 1
  31   18   19 ar
  32   18   35 1
  33   19   36 1
  34   20   21 2
  35   20   22 1
  36   22   23 2
  37   22   24 1
  38   24   25 ar
  39   25   37 1

#	End of record

