#	Name: ASD00311509
#	Creating user name:	WinNT
#	Creation time:	15. 06. 2019 18:34

#	Modifying user name:	WinNT
#	Modification time:	15. 06. 2019 18:34

#	Program:	/corina/corina34_cracker 3.40 0067  02.08.2006

@<TRIPOS>MOLECULE
ASD00311509
  45   49    0    0    0
SMALL
NO_CHARGES


@<TRIPOS>ATOM
   1 C1            -0.0167     1.3777     0.0096 C.2     
   2 C2             0.0021    -0.0041     0.0020 C.2     
   3 C3             1.2588    -0.6767    -0.0139 C.2     
   4 C4             2.4315     0.0672    -0.0214 C.2     
   5 C5             2.3574     1.4751    -0.0131 C.2     
   6 N6             1.1648     2.0902     0.0022 N.am    
   7 C7            -1.3432    -0.5752     0.0126 C.2     
   8 C8            -2.3228     0.3262     0.0274 C.2     
   9 S9            -1.6792     1.9563     0.0358 S.3     
  10 O10            3.3822     2.1373    -0.0196 O.2     
  11 C11            3.7477    -0.6120    -0.0375 C.ar    
  12 C12            4.5931    -0.4746    -1.1382 C.ar    
  13 C13            5.8180    -1.1100    -1.1473 C.ar    
  14 C14            6.2078    -1.8823    -0.0677 C.ar    
  15 C15            5.3735    -2.0224     1.0270 C.ar    
  16 C16            4.1489    -1.3870     1.0505 C.ar    
  17 C17           -1.5956    -2.0347     0.0069 C.ar    
  18 C18           -2.4704    -2.5954     0.9385 C.ar    
  19 C19           -2.7047    -3.9525     0.9328 C.ar    
  20 C20           -2.0679    -4.7664    -0.0038 C.ar    
  21 C21           -1.1936    -4.2064    -0.9350 C.ar    
  22 C22           -0.9631    -2.8487    -0.9337 C.ar    
  23 C23           -3.1914    -6.7997     0.9166 C.ar    
  24 C24           -2.3202    -6.2278    -0.0092 C.ar    
  25 C25           -1.6886    -7.0542    -0.9429 C.ar    
  26 C26           -1.9580    -8.4117    -0.9065 C.ar    
  27 C27           -2.8350    -8.9020     0.0435 C.ar    
  28 N28           -3.4164    -8.0974     0.9123 N.ar    
  29 O29            1.3087    -2.0292    -0.0212 O.3     
  30 H30            1.1326     3.0597     0.0077 H       
  31 H31           -3.3754     0.0847     0.0362 H       
  32 H32            4.2896     0.1275    -1.9818 H       
  33 H33            6.4735    -1.0043    -1.9990 H       
  34 H34            7.1671    -2.3782    -0.0797 H       
  35 H35            5.6832    -2.6270     1.8666 H       
  36 H36            3.5006    -1.4932     1.9077 H       
  37 H37           -2.9632    -1.9652     1.6640 H       
  38 H38           -3.3814    -4.3865     1.6540 H       
  39 H39           -0.7007    -4.8371    -1.6601 H       
  40 H40           -0.2895    -2.4145    -1.6578 H       
  41 H41           -3.6828    -6.1737     1.6466 H       
  42 H42           -1.0080    -6.6441    -1.6744 H       
  43 H43           -1.4884    -9.0804    -1.6127 H       
  44 H44           -3.0474    -9.9605     0.0747 H       
  45 H45            2.2059    -2.3896    -0.0320 H       
@<TRIPOS>BOND
   1    1    2 2
   2    1    6 1
   3    1    9 1
   4    2    3 1
   5    2    7 1
   6    3    4 2
   7    3   29 1
   8    4    5 1
   9    4   11 1
  10    5    6 am
  11    5   10 2
  12    6   30 1
  13    7    8 2
  14    7   17 1
  15    8    9 1
  16    8   31 1
  17   11   12 ar
  18   11   16 ar
  19   12   13 ar
  20   12   32 1
  21   13   14 ar
  22   13   33 1
  23   14   15 ar
  24   14   34 1
  25   15   16 ar
  26   15   35 1
  27   16   36 1
  28   17   18 ar
  29   17   22 ar
  30   18   19 ar
  31   18   37 1
  32   19   20 ar
  33   19   38 1
  34   20   21 ar
  35   20   24 1
  36   21   22 ar
  37   21   39 1
  38   22   40 1
  39   23   24 ar
  40   23   28 ar
  41   23   41 1
  42   24   25 ar
  43   25   26 ar
  44   25   42 1
  45   26   27 ar
  46   26   43 1
  47   27   28 ar
  48   27   44 1
  49   29   45 1

#	End of record

