#	Name: ASD01884968
#	Creating user name:	WinNT
#	Creation time:	15. 06. 2019 19:49

#	Modifying user name:	WinNT
#	Modification time:	15. 06. 2019 19:49

#	Program:	/corina/corina34_cracker 3.40 0067  02.08.2006

@<TRIPOS>MOLECULE
ASD01884968
  50   54    0    0    0
SMALL
NO_CHARGES


@<TRIPOS>ATOM
   1 C1             0.0271     1.4059     0.1657 C.ar    
   2 C2             0.0802     0.0276     0.1646 C.ar    
   3 C3            -1.0938    -0.7138     0.0281 C.ar    
   4 C4            -2.3174    -0.0584    -0.1069 C.ar    
   5 C5            -2.3640     1.3198    -0.1050 C.ar    
   6 C6            -1.1952     2.0555     0.0367 C.ar    
   7 C7            -1.0406    -2.1944     0.0260 C.2     
   8 C8            -1.6375    -2.9156     1.0429 C.2     
   9 C9            -0.3826    -2.8848    -1.0210 C.2     
  10 C10           -0.3358    -4.2301    -1.0212 C.2     
  11 N11           -0.9178    -4.9503    -0.0180 N.pl3   
  12 C12           -1.5702    -4.3189     1.0134 C.2     
  13 C13           -1.0250    -6.2839     0.2359 C.2     
  14 N14           -1.6949    -6.4202     1.3510 N.2     
  15 N15           -2.0228    -5.2674     1.8190 N.2     
  16 C16           -0.4725    -7.3995    -0.6134 C.3     
  17 Cl17           1.4868     2.3300     0.3354 Cl      
  18 C18            0.5431    -8.3434     0.0336 C.3     
  19 C19           -0.8790    -8.8298    -0.2526 C.3     
  20 O20           -1.2447     3.4132     0.0380 O.3     
  21 C21           -1.0492     4.0598    -1.1411 C.ar    
  22 C22           -1.1517     5.4416    -1.2111 C.ar    
  23 N23           -0.9629     6.0731    -2.3529 N.ar    
  24 C24           -0.6720     5.4263    -3.4644 C.ar    
  25 C25           -0.5531     4.0488    -3.4738 C.ar    
  26 C26           -0.7378     3.3460    -2.2944 C.ar    
  27 C27           -1.4826     6.2288     0.0306 C.3     
  28 C28           -0.4669     6.1988    -4.7420 C.3     
  29 C29           -2.3494    -2.2076     2.1668 C.3     
  30 F30           -3.7158    -2.1288     1.8769 F       
  31 F31           -2.1654    -2.9194     3.3570 F       
  32 F32           -1.8278    -0.9174     2.3096 F       
  33 H33            1.0294    -0.4769     0.2689 H       
  34 H34           -3.2277    -0.6297    -0.2130 H       
  35 H35           -3.3114     1.8276    -0.2099 H       
  36 H36            0.0828    -2.3300    -1.8223 H       
  37 H37            0.1680    -4.7461    -1.8251 H       
  38 H38           -0.3398    -7.1649    -1.6695 H       
  39 H39            1.3437    -8.7300    -0.5970 H       
  40 H40            0.8117    -8.1574     1.0735 H       
  41 H41           -1.5460    -8.9638     0.5990 H       
  42 H42           -1.0140    -9.5364    -1.0715 H       
  43 H43           -0.3149     3.5273    -4.3890 H       
  44 H44           -0.6506     2.2698    -2.2723 H       
  45 H45           -0.5607     6.5037     0.5430 H       
  46 H46           -2.0276     7.1314    -0.2459 H       
  47 H47           -2.0990     5.6207     0.6928 H       
  48 H48            0.5844     6.4704    -4.8376 H       
  49 H49           -0.7614     5.5818    -5.5910 H       
  50 H50           -1.0754     7.1029    -4.7216 H       
@<TRIPOS>BOND
   1    1    2 ar
   2    1   17 1
   3    1    6 ar
   4    2    3 ar
   5    2   33 1
   6    3    4 ar
   7    3    7 1
   8    4    5 ar
   9    4   34 1
  10    5    6 ar
  11    5   35 1
  12    6   20 1
  13    7    8 2
  14    7    9 1
  15    8   29 1
  16    8   12 1
  17    9   10 2
  18    9   36 1
  19   10   11 1
  20   10   37 1
  21   11   12 1
  22   11   13 1
  23   12   15 2
  24   13   14 2
  25   13   16 1
  26   14   15 1
  27   16   18 1
  28   16   19 1
  29   16   38 1
  30   18   19 1
  31   18   39 1
  32   18   40 1
  33   19   41 1
  34   19   42 1
  35   20   21 1
  36   21   22 ar
  37   21   26 ar
  38   22   23 ar
  39   22   27 1
  40   23   24 ar
  41   24   25 ar
  42   24   28 1
  43   25   26 ar
  44   25   43 1
  45   26   44 1
  46   27   45 1
  47   27   46 1
  48   27   47 1
  49   28   48 1
  50   28   49 1
  51   28   50 1
  52   29   30 1
  53   29   31 1
  54   29   32 1

#	End of record

