#	Name: ASD01020017
#	Creating user name:	WinNT
#	Creation time:	15. 06. 2019 18:56

#	Modifying user name:	WinNT
#	Modification time:	15. 06. 2019 18:56

#	Program:	/corina/corina34_cracker 3.40 0067  02.08.2006

@<TRIPOS>MOLECULE
ASD01020017
  68   72    0    0    0
SMALL
NO_CHARGES


@<TRIPOS>ATOM
   1 C1             1.2059    -0.8548     3.5153 C.3     
   2 N2             0.5367    -1.9926     4.1599 N.3     
   3 C3             0.2021    -1.6842     5.5566 C.3     
   4 C4            -0.6599    -2.3942     3.4083 C.3     
   5 C5            -1.1859    -3.7216     3.9581 C.3     
   6 N6            -2.3792    -4.1221     3.2085 N.am    
   7 C7            -3.0175    -5.2675     3.5198 C.2     
   8 O8            -2.6031    -5.9684     4.4226 O.2     
   9 C9            -4.2208    -5.6714     2.7640 C.ar    
  10 C10           -4.6941    -4.8693     1.7226 C.ar    
  11 C11           -5.8153    -5.2469     1.0186 C.ar    
  12 C12           -6.4789    -6.4297     1.3450 C.ar    
  13 C13           -6.0072    -7.2314     2.3846 C.ar    
  14 C14           -4.8829    -6.8587     3.0862 C.ar    
  15 C15           -7.6871    -6.8349     0.5866 C.ar    
  16 C16           -8.1557    -6.0361    -0.4564 C.ar    
  17 C17           -9.2820    -6.4121    -1.1647 C.ar    
  18 C18           -9.9438    -7.5758    -0.8434 C.ar    
  19 C19          -11.1701    -8.2523    -1.4044 C.3     
  20 N20          -11.3614    -9.4754    -0.6169 N.am    
  21 C21          -12.4355   -10.4532    -0.8074 C.3     
  22 H22          -12.2747   -11.3033    -0.1445 H       
  23 C23          -13.7613    -9.8115    -0.4888 C.2     
  24 O24          -13.8047    -8.6515    -0.1372 O.2     
  25 N25          -14.8988   -10.5265    -0.5945 N.am    
  26 C26          -16.1217    -9.9346    -0.3006 C.2     
  27 N27          -16.2796    -8.7047     0.0770 N.2     
  28 C28          -17.5153    -8.3067     0.3151 C.2     
  29 C29          -18.4458    -9.2450     0.1298 C.2     
  30 S30          -17.6372   -10.7208    -0.3916 S.3     
  31 C31          -12.4370   -10.9254    -2.2385 C.ar    
  32 C32          -12.5605   -10.0110    -3.2679 C.ar    
  33 C33          -12.5619   -10.4442    -4.5806 C.ar    
  34 C34          -12.4393   -11.7916    -4.8640 C.ar    
  35 C35          -12.3150   -12.7059    -3.8346 C.ar    
  36 C36          -12.3093   -12.2723    -2.5221 C.ar    
  37 C37          -10.3888    -9.5514     0.3076 C.2     
  38 O38          -10.2693   -10.4497     1.1178 O.2     
  39 C39           -9.4871    -8.3881     0.1989 C.ar    
  40 C40           -8.3492    -8.0148     0.9121 C.ar    
  41 H41            2.0884    -0.5780     4.0922 H       
  42 H42            1.5052    -1.1340     2.5051 H       
  43 H43            0.5209    -0.0082     3.4704 H       
  44 H44           -0.4647    -0.8226     5.5888 H       
  45 H45           -0.2923    -2.5434     6.0100 H       
  46 H46            1.1150    -1.4580     6.1075 H       
  47 H47           -1.4282    -1.6280     3.5119 H       
  48 H48           -0.4047    -2.5128     2.3552 H       
  49 H49           -0.4176    -4.4878     3.8545 H       
  50 H50           -1.4411    -3.6030     5.0112 H       
  51 H51           -2.7098    -3.5629     2.4882 H       
  52 H52           -4.1808    -3.9532     1.4702 H       
  53 H53           -6.1813    -4.6270     0.2136 H       
  54 H54           -6.5218    -8.1469     2.6364 H       
  55 H55           -4.5153    -7.4817     3.8881 H       
  56 H56           -7.6386    -5.1227    -0.7107 H       
  57 H57           -9.6434    -5.7917    -1.9714 H       
  58 H58          -12.0378    -7.6007    -1.3008 H       
  59 H59          -11.0126    -8.5031    -2.4534 H       
  60 H60          -14.8642   -11.4542    -0.8757 H       
  61 H61          -17.7540    -7.3028     0.6340 H       
  62 H62          -19.5093    -9.1202     0.2706 H       
  63 H63          -12.6562    -8.9583    -3.0465 H       
  64 H64          -12.6590    -9.7299    -5.3848 H       
  65 H65          -12.4411   -12.1301    -5.8896 H       
  66 H66          -12.2196   -13.7586    -4.0560 H       
  67 H67          -12.2084   -12.9862    -1.7180 H       
  68 H68           -7.9853    -8.6366     1.7167 H       
@<TRIPOS>BOND
   1    1    2 1
   2    1   41 1
   3    1   42 1
   4    1   43 1
   5    2    3 1
   6    2    4 1
   7    3   44 1
   8    3   45 1
   9    3   46 1
  10    4    5 1
  11    4   47 1
  12    4   48 1
  13    5    6 1
  14    5   49 1
  15    5   50 1
  16    6    7 am
  17    6   51 1
  18    7    8 2
  19    7    9 1
  20    9   14 ar
  21    9   10 ar
  22   10   11 ar
  23   10   52 1
  24   11   12 ar
  25   11   53 1
  26   12   13 ar
  27   12   15 1
  28   13   14 ar
  29   13   54 1
  30   14   55 1
  31   15   40 ar
  32   15   16 ar
  33   16   17 ar
  34   16   56 1
  35   17   18 ar
  36   17   57 1
  37   18   39 ar
  38   18   19 1
  39   19   20 1
  40   19   58 1
  41   19   59 1
  42   20   21 1
  43   20   37 am
  44   21   22 1
  45   21   23 1
  46   21   31 1
  47   23   24 2
  48   23   25 am
  49   25   26 1
  50   25   60 1
  51   26   30 1
  52   26   27 2
  53   27   28 1
  54   28   29 2
  55   28   61 1
  56   29   30 1
  57   29   62 1
  58   31   36 ar
  59   31   32 ar
  60   32   33 ar
  61   32   63 1
  62   33   34 ar
  63   33   64 1
  64   34   35 ar
  65   34   65 1
  66   35   36 ar
  67   35   66 1
  68   36   67 1
  69   37   38 2
  70   37   39 1
  71   39   40 ar
  72   40   68 1

#	End of record

