#	Name: ASD01420145
#	Creating user name:	WinNT
#	Creation time:	15. 06. 2019 19:20

#	Modifying user name:	WinNT
#	Modification time:	15. 06. 2019 19:20

#	Program:	/corina/corina34_cracker 3.40 0067  02.08.2006

@<TRIPOS>MOLECULE
ASD01420145
  56   59    0    0    0
SMALL
NO_CHARGES


@<TRIPOS>ATOM
   1 C1             2.4036     0.1959     1.0098 C.ar    
   2 C2             1.6940    -0.7936     0.3689 C.ar    
   3 C3             0.9470    -0.5045    -0.7790 C.ar    
   4 C4             0.9176     0.7924    -1.2804 C.ar    
   5 C5             2.3850     1.4973     0.5219 C.ar    
   6 C6             0.1900    -1.5773    -1.4583 C.2     
   7 C7             0.2186    -2.8134    -0.9803 C.2     
   8 C8            -0.5531    -3.9070    -1.6728 C.3     
   9 O9             2.9690     2.6424     0.9320 O.3     
  10 C10            1.6356     1.7948    -0.6315 C.ar    
  11 C11            1.8290     3.2277    -0.8703 C.2     
  12 C12            2.6460     3.6657     0.1171 C.2     
  13 C13            1.2383     4.0478    -1.9882 C.3     
  14 C14            3.1137     5.0584     0.2768 C.ar    
  15 C15            2.2068     6.1161     0.1860 C.ar    
  16 C16            2.6471     7.4137     0.3360 C.ar    
  17 C17            3.9906     7.6696     0.5767 C.ar    
  18 C18            4.8958     6.6204     0.6678 C.ar    
  19 C19            4.4627     5.3197     0.5247 C.ar    
  20 O20            4.4207     8.9501     0.7231 O.3     
  21 C21            5.8153     9.1419     0.9687 C.3     
  22 O22            6.1591     8.5731     2.2338 O.3     
  23 C23            6.1300    10.6401     0.9820 C.3     
  24 C24            7.6140    10.8393     1.3053 C.3     
  25 C25            7.5438     8.6875     2.5680 C.3     
  26 C26            7.9279    10.1675     2.6456 C.3     
  27 O27            5.3336    11.2866     1.9769 O.3     
  28 O28            8.4108    10.2490     0.2764 O.3     
  29 O29            7.1791    10.8014     3.6845 O.3     
  30 C30            7.7984     8.0227     3.9223 C.3     
  31 H31            2.9731    -0.0384     1.8971 H       
  32 H32            1.7139    -1.8021     0.7547 H       
  33 H33            0.3431     1.0207    -2.1660 H       
  34 H34           -0.3863    -1.3539    -2.3439 H       
  35 H35            0.7949    -3.0367    -0.0947 H       
  36 H36           -0.1946    -4.0123    -2.6968 H       
  37 H37           -0.4097    -4.8467    -1.1393 H       
  38 H38           -1.6131    -3.6532    -1.6833 H       
  39 H39            0.3239     4.5292    -1.6415 H       
  40 H40            1.9545     4.8087    -2.2982 H       
  41 H41            1.0093     3.3986    -2.8332 H       
  42 H42            1.1619     5.9179    -0.0019 H       
  43 H43            1.9463     8.2324     0.2659 H       
  44 H44            5.9398     6.8236     0.8551 H       
  45 H45            5.1665     4.5040     0.6000 H       
  46 H46            6.3931     8.6559     0.1825 H       
  47 H47            5.9098    11.0672     0.0036 H       
  48 H48            7.8332    11.9051     1.3700 H       
  49 H49            8.1443     8.1955     1.8029 H       
  50 H50            8.9935    10.2566     2.8570 H       
  51 H51            4.3809    11.1968     1.8374 H       
  52 H52            8.2583    10.6226    -0.6024 H       
  53 H53            7.3292    10.4258     4.5629 H       
  54 H54            7.5239     6.9693     3.8672 H       
  55 H55            8.8546     8.1101     4.1771 H       
  56 H56            7.1981     8.5151     4.6874 H       
@<TRIPOS>BOND
   1    1    2 ar
   2    1    5 ar
   3    1   31 1
   4    2    3 ar
   5    2   32 1
   6    3    4 ar
   7    3    6 1
   8    4   10 ar
   9    4   33 1
  10    5   10 ar
  11    5    9 1
  12    6    7 2
  13    6   34 1
  14    7    8 1
  15    7   35 1
  16    8   36 1
  17    8   37 1
  18    8   38 1
  19    9   12 1
  20   10   11 1
  21   11   12 2
  22   11   13 1
  23   12   14 1
  24   13   39 1
  25   13   40 1
  26   13   41 1
  27   14   15 ar
  28   14   19 ar
  29   15   16 ar
  30   15   42 1
  31   16   17 ar
  32   16   43 1
  33   17   18 ar
  34   17   20 1
  35   18   19 ar
  36   18   44 1
  37   19   45 1
  38   20   21 1
  39   21   22 1
  40   21   23 1
  41   21   46 1
  42   22   25 1
  43   23   24 1
  44   23   27 1
  45   23   47 1
  46   24   28 1
  47   24   26 1
  48   24   48 1
  49   25   30 1
  50   25   26 1
  51   25   49 1
  52   26   29 1
  53   26   50 1
  54   27   51 1
  55   28   52 1
  56   29   53 1
  57   30   54 1
  58   30   55 1
  59   30   56 1

#	End of record

