#	Name: ASD08150040
#	Creating user name:	WinNT
#	Creation time:	15. 06. 2019 21:15

#	Modifying user name:	WinNT
#	Modification time:	15. 06. 2019 21:15

#	Program:	/corina/corina34_cracker 3.40 0067  02.08.2006

@<TRIPOS>MOLECULE
ASD08150040
  46   50    0    0    0
SMALL
NO_CHARGES


@<TRIPOS>ATOM
   1 N1            -0.0157     1.2952    -0.0516 N.2     
   2 C2             0.0018    -0.0026    -0.0877 C.2     
   3 N3             1.1484    -0.7346    -0.1051 N.am    
   4 C4             2.3558    -0.1234    -0.0845 C.2     
   5 C5             2.3702     1.3460    -0.0436 C.ar    
   6 C6             3.5601     2.0709    -0.0203 C.ar    
   7 C7             3.5158     3.4472     0.0173 C.ar    
   8 C8             2.2979     4.1146     0.0327 C.ar    
   9 C9             1.1111     3.4173     0.0102 C.ar    
  10 C10            1.1296     2.0215    -0.0285 C.ar    
  11 O11            3.3899    -0.7656    -0.0989 O.2     
  12 C12            4.8858     1.3543    -0.0358 C.3     
  13 C13            1.0788    -2.1332    -0.1442 C.ar    
  14 C14            1.0410    -2.8621     1.0387 C.ar    
  15 C15            0.9724    -4.2417     0.9961 C.ar    
  16 C16            0.9417    -4.8964    -0.2217 C.ar    
  17 C17            0.9796    -4.1737    -1.3998 C.ar    
  18 C18            1.0416    -2.7940    -1.3644 C.ar    
  19 Cl19           1.0806    -2.0406     2.5675 Cl      
  20 C20           -1.3149    -0.7353    -0.1110 C.3     
  21 N21           -3.9983     1.5255     0.6772 N.2     
  22 C22           -3.0837     0.6652     1.0193 C.2     
  23 N23           -2.4134     0.2336    -0.0864 N.pl3   
  24 C24           -2.9560     0.8734    -1.1721 C.ar    
  25 N25           -2.7254     0.8606    -2.4808 N.ar    
  26 C26           -3.4379     1.6106    -3.2950 C.ar    
  27 N27           -4.4031     2.4032    -2.8662 N.ar    
  28 C28           -4.7059     2.4825    -1.5745 C.ar    
  29 C29           -3.9732     1.7002    -0.6659 C.ar    
  30 N30           -5.7188     3.3165    -1.1346 N.pl3   
  31 H31            4.4361     4.0121     0.0354 H       
  32 H32            2.2817     5.1941     0.0629 H       
  33 H33            0.1702     3.9473     0.0228 H       
  34 H34            5.1535     1.1075    -1.0632 H       
  35 H35            5.6522     1.9988     0.3946 H       
  36 H36            4.8105     0.4382     0.5501 H       
  37 H37            0.9430    -4.8090     1.9146 H       
  38 H38            0.8884    -5.9746    -0.2526 H       
  39 H39            0.9563    -4.6882    -2.3490 H       
  40 H40            1.0659    -2.2302    -2.2852 H       
  41 H41           -1.3804    -1.3360    -1.0182 H       
  42 H42           -1.3843    -1.3855     0.7611 H       
  43 H43           -2.8848     0.3412     2.0302 H       
  44 H44           -3.2248     1.5767    -4.3532 H       
  45 H45           -6.2173     3.8519    -1.7716 H       
  46 H46           -5.9304     3.3656    -0.1892 H       
@<TRIPOS>BOND
   1    1    2 2
   2    1   10 1
   3    2    3 1
   4    2   20 1
   5    3    4 am
   6    3   13 1
   7    4    5 1
   8    4   11 2
   9    5    6 ar
  10    5   10 ar
  11    6    7 ar
  12    6   12 1
  13    7    8 ar
  14    7   31 1
  15    8    9 ar
  16    8   32 1
  17    9   10 ar
  18    9   33 1
  19   12   34 1
  20   12   35 1
  21   12   36 1
  22   13   14 ar
  23   13   18 ar
  24   14   15 ar
  25   14   19 1
  26   15   16 ar
  27   15   37 1
  28   16   17 ar
  29   16   38 1
  30   17   18 ar
  31   17   39 1
  32   18   40 1
  33   20   23 1
  34   20   41 1
  35   20   42 1
  36   21   22 2
  37   21   29 1
  38   22   23 1
  39   22   43 1
  40   23   24 1
  41   24   25 ar
  42   24   29 ar
  43   25   26 ar
  44   26   27 ar
  45   26   44 1
  46   27   28 ar
  47   28   29 ar
  48   28   30 1
  49   30   45 1
  50   30   46 1

#	End of record

