#	Name: ASD07300968
#	Creating user name:	WinNT
#	Creation time:	15. 06. 2019 21:10

#	Modifying user name:	WinNT
#	Modification time:	15. 06. 2019 21:10

#	Program:	/corina/corina34_cracker 3.40 0067  02.08.2006

@<TRIPOS>MOLECULE
ASD07300968
  46   50    0    0    0
SMALL
NO_CHARGES


@<TRIPOS>ATOM
   1 N1             0.1348     1.4742     0.0824 N.am    
   2 C2             0.0764     0.1259    -0.0582 C.2     
   3 N3             1.1330    -0.6186    -0.2044 N.2     
   4 C4             2.3698    -0.0974    -0.2270 C.2     
   5 C5             2.5303     1.2903    -0.0891 C.2     
   6 C6             1.3298     2.1100     0.0747 C.2     
   7 N7             3.6161    -0.6205    -0.3616 N.pl3   
   8 N8             4.5420     0.4290    -0.3081 N.2     
   9 C9             3.9105     1.5591    -0.1476 C.2     
  10 O10            1.4028     3.3198     0.1989 O.2     
  11 C11            3.9369    -2.0397    -0.5329 C.3     
  12 C12            4.5485    -2.2631    -1.9194 C.3     
  13 C13            4.9525    -3.7330    -2.0596 C.3     
  14 O14            5.8700    -4.0748    -1.0186 O.3     
  15 C15            5.3370    -3.9308     0.2994 C.3     
  16 C16            4.9484    -2.4688     0.5344 C.3     
  17 C17           -1.2754    -0.5401    -0.0438 C.3     
  18 C18           -1.3001    -1.8994    -0.7626 C.3     
  19 C19           -2.2103    -2.3950     0.3735 C.3     
  20 C20           -1.5691    -1.3100     1.2546 C.3     
  21 C21           -0.3293    -1.7726     1.9756 C.ar    
  22 N22           -0.0989    -1.3387     3.1986 N.ar    
  23 C23            0.9790    -1.7237     3.8628 C.ar    
  24 C24            1.8700    -2.5943     3.2553 C.ar    
  25 C25            1.5936    -3.0288     1.9685 C.ar    
  26 N26            0.4930    -2.6047     1.3685 N.ar    
  27 H27           -0.6834     1.9850     0.1849 H       
  28 H28            4.3685     2.5343    -0.0725 H       
  29 H29            3.0279    -2.6333    -0.4354 H       
  30 H30            3.8150    -2.0123    -2.6858 H       
  31 H31            5.4287    -1.6307    -2.0355 H       
  32 H32            4.0659    -4.3625    -1.9838 H       
  33 H33            5.4274    -3.8887    -3.0283 H       
  34 H34            4.4554    -4.5629     0.4061 H       
  35 H35            6.0888    -4.2290     1.0301 H       
  36 H36            5.8366    -1.8406     0.4679 H       
  37 H37            4.5009    -2.3652     1.5229 H       
  38 H38           -2.0802     0.1292    -0.3477 H       
  39 H39           -1.7919    -1.8702    -1.7349 H       
  40 H40           -0.3299    -2.3952    -0.7926 H       
  41 H41           -3.2716    -2.2333     0.1848 H       
  42 H42           -1.9874    -3.4107     0.7000 H       
  43 H43           -2.2779    -0.8050     1.9108 H       
  44 H44            1.1621    -1.3640     4.8645 H       
  45 H45            2.7585    -2.9259     3.7720 H       
  46 H46            2.2655    -3.7071     1.4637 H       
@<TRIPOS>BOND
   1    1    2 1
   2    1    6 am
   3    1   27 1
   4    2    3 2
   5    2   17 1
   6    3    4 1
   7    4    5 2
   8    4    7 1
   9    5    6 1
  10    5    9 1
  11    6   10 2
  12    7    8 1
  13    7   11 1
  14    8    9 2
  15    9   28 1
  16   11   12 1
  17   11   16 1
  18   11   29 1
  19   12   13 1
  20   12   30 1
  21   12   31 1
  22   13   14 1
  23   13   32 1
  24   13   33 1
  25   14   15 1
  26   15   16 1
  27   15   34 1
  28   15   35 1
  29   16   36 1
  30   16   37 1
  31   17   18 1
  32   17   20 1
  33   17   38 1
  34   18   19 1
  35   18   39 1
  36   18   40 1
  37   19   20 1
  38   19   41 1
  39   19   42 1
  40   20   21 1
  41   20   43 1
  42   21   22 ar
  43   21   26 ar
  44   22   23 ar
  45   23   24 ar
  46   23   44 1
  47   24   25 ar
  48   24   45 1
  49   25   26 ar
  50   25   46 1

#	End of record

