#	Name: ASD01670020
#	Creating user name:	WinNT
#	Creation time:	15. 06. 2019 19:22

#	Modifying user name:	WinNT
#	Modification time:	15. 06. 2019 19:22

#	Program:	/corina/corina34_cracker 3.40 0067  02.08.2006

@<TRIPOS>MOLECULE
ASD01670020
  53   55    0    0    0
SMALL
NO_CHARGES


@<TRIPOS>ATOM
   1 C1            -0.5850     2.1504     0.4911 C.ar    
   2 C2            -0.8544     0.7949     0.5813 C.ar    
   3 C3             3.5079    10.0798    -4.5326 C.2     
   4 C4             2.0116    11.5475    -5.0457 C.2     
   5 C5             1.7503     1.6707     0.1841 C.ar    
   6 C6             0.7048     2.5926     0.2941 C.ar    
   7 C7             0.1695    -0.1313     0.4746 C.ar    
   8 C8             1.4784     0.3001     0.2754 C.ar    
   9 C9             2.3533     9.4110    -4.7146 C.2     
  10 C10            3.1319     2.1393    -0.0273 C.2     
  11 C11            1.8867     7.5775    -3.1409 C.2     
  12 C12            1.4190    -1.9067    -0.0467 C.3     
  13 C13            0.5773     3.5142    -4.0430 C.3     
  14 C14           -1.7360     4.4556    -3.9734 C.3     
  15 C15            0.9887     4.0694     0.1965 C.3     
  16 C16            2.1462     7.9240    -4.5844 C.3     
  17 C17           -0.3855     4.3040    -1.8769 C.3     
  18 C18            1.4193     5.9589    -1.3805 C.3     
  19 C19           -0.3276     4.5577    -3.3847 C.3     
  20 C20            1.0089     4.4888    -1.2748 C.3     
  21 N21            1.4037    10.3416    -5.0401 N.pl3   
  22 N22            3.2699    11.3831    -4.7413 N.2     
  23 N23            1.6716     6.2958    -2.7837 N.am    
  24 O24            3.8468     2.3732     0.9270 O.2     
  25 O25            3.6020     2.3081    -1.2788 O.3     
  26 O26            1.8714     8.4519    -2.3006 O.2     
  27 O27            0.1644    -1.4957     0.5283 O.3     
  28 O28            2.2922    -0.7896     0.2054 O.3     
  29 H29           -1.3912     2.8646     0.5712 H       
  30 H30           -1.8688     0.4582     0.7362 H       
  31 H31            4.4580     9.6436    -4.2615 H       
  32 H32            1.5354    12.4915    -5.2660 H       
  33 H33            1.7918    -2.8033     0.4485 H       
  34 H34            1.3122    -2.0759    -1.1182 H       
  35 H35            0.6185     3.6949    -5.1171 H       
  36 H36            1.5807     3.5869    -3.6235 H       
  37 H37            0.1772     2.5174    -3.8573 H       
  38 H38           -2.1361     3.4588    -3.7878 H       
  39 H39           -2.3807     5.1990    -3.5044 H       
  40 H40           -1.6948     4.6363    -5.0476 H       
  41 H41            0.2114     4.6243     0.7218 H       
  42 H42            1.9570     4.2839     0.6488 H       
  43 H43            1.2918     7.6217    -5.1899 H       
  44 H44            3.0386     7.4014    -4.9287 H       
  45 H45           -1.0767     5.0097    -1.4161 H       
  46 H46           -0.7288     3.2861    -1.6926 H       
  47 H47            0.6179     6.5886    -0.9941 H       
  48 H48            2.3255     6.1259    -0.7981 H       
  49 H49            0.0725     5.5544    -3.5703 H       
  50 H50            1.7242     3.8718    -1.8186 H       
  51 H51            0.4689    10.1675    -5.2314 H       
  52 H52            1.6839     5.5965    -3.4558 H       
  53 H53            4.5140     2.6170    -1.3672 H       
@<TRIPOS>BOND
   1    1    2 ar
   2    1    6 ar
   3    1   29 1
   4    2    7 ar
   5    2   30 1
   6    3    9 2
   7    3   22 1
   8    3   31 1
   9    4   21 1
  10    4   22 2
  11    4   32 1
  12    5    6 ar
  13    5    8 ar
  14    5   10 1
  15    6   15 1
  16    7    8 ar
  17    7   27 1
  18    8   28 1
  19    9   16 1
  20    9   21 1
  21   10   24 2
  22   10   25 1
  23   11   16 1
  24   11   23 am
  25   11   26 2
  26   12   27 1
  27   12   28 1
  28   12   33 1
  29   12   34 1
  30   13   19 1
  31   13   35 1
  32   13   36 1
  33   13   37 1
  34   14   19 1
  35   14   38 1
  36   14   39 1
  37   14   40 1
  38   15   20 1
  39   15   41 1
  40   15   42 1
  41   16   43 1
  42   16   44 1
  43   17   19 1
  44   17   20 1
  45   17   45 1
  46   17   46 1
  47   18   20 1
  48   18   23 1
  49   18   47 1
  50   18   48 1
  51   19   49 1
  52   20   50 1
  53   21   51 1
  54   23   52 1
  55   25   53 1

#	End of record

