#	Name: ASD09116061
#	Creating user name:	WinNT
#	Creation time:	15. 06. 2019 21:20

#	Modifying user name:	WinNT
#	Modification time:	15. 06. 2019 21:20

#	Program:	/corina/corina34_cracker 3.40 0067  02.08.2006

@<TRIPOS>MOLECULE
ASD09116061
  66   70    0    0    0
SMALL
NO_CHARGES


@<TRIPOS>ATOM
   1 C1            -0.0524     1.3933    -0.2325 C.ar    
   2 N2            -0.0239     0.0016    -0.1940 N.pl3   
   3 N3            -1.1275    -0.8608    -0.0926 N.2     
   4 C4            -0.6584    -2.0851    -0.0901 C.2     
   5 N5             0.6760    -2.0442    -0.1841 N.2     
   6 C6             1.0779    -0.7934    -0.2530 C.2     
   7 N7             2.3866    -0.3638    -0.3579 N.pl3   
   8 N8            -1.4273    -3.2452    -0.0027 N.pl3   
   9 N9             1.0880     2.0581    -0.3312 N.ar    
  10 N10           -1.2228     2.0168    -0.1748 N.ar    
  11 C11           -1.2715     3.3305    -0.2080 C.ar    
  12 C12           -0.0957     4.0608    -0.3179 C.ar    
  13 C13            1.1050     3.3830    -0.3774 C.ar    
  14 C14           -2.5595     4.1028    -0.1126 C.3     
  15 C15           -3.0782     4.5091    -1.4550 C.3     
  16 C16           -2.4445     5.7052    -2.1378 C.3     
  17 C17           -1.0682     5.3275    -2.7150 C.3     
  18 C18            0.0175     6.0052    -1.8331 C.3     
  19 C19           -0.1765     5.5599    -0.3845 C.3     
  20 C20           -0.8174    -4.5002    -0.1217 C.ar    
  21 C21           -1.3495    -5.5967     0.5440 C.ar    
  22 C22           -0.7481    -6.8341     0.4267 C.ar    
  23 C23            0.3891    -6.9820    -0.3565 C.ar    
  24 C24            0.9215    -5.8854    -1.0218 C.ar    
  25 C25            0.3162    -4.6493    -0.9099 C.ar    
  26 N26            0.9990    -8.2362    -0.4750 N.3     
  27 C27            0.0282    -9.2572    -0.9251 C.3     
  28 C28            0.4176   -10.5822    -0.2437 C.3     
  29 C29            1.6409   -10.2389     0.6371 C.3     
  30 C30            1.5037    -8.7090     0.8395 C.3     
  31 N31            0.7812   -11.5866    -1.2522 N.3     
  32 C32            1.1557   -12.8576    -0.6180 C.3     
  33 C33           -0.3082   -11.7810    -2.2182 C.3     
  34 H34            3.1087    -1.0109    -0.3865 H       
  35 H35            2.5835     0.5849    -0.4031 H       
  36 H36           -2.3847    -3.1829     0.1405 H       
  37 H37            2.0385     3.9203    -0.4557 H       
  38 H38           -3.3072     3.4831     0.3824 H       
  39 H39           -2.3915     4.9975     0.4869 H       
  40 H40           -2.9748     3.6536    -2.1226 H       
  41 H41           -4.1436     4.7138    -1.3501 H       
  42 H42           -3.0932     6.0448    -2.9453 H       
  43 H43           -2.3230     6.5109    -1.4138 H       
  44 H44           -0.9416     4.2452    -2.6900 H       
  45 H45           -0.9871     5.6859    -3.7412 H       
  46 H46            1.0073     5.7060    -2.1779 H       
  47 H47           -0.0824     7.0886    -1.8988 H       
  48 H48           -1.1533     5.8885    -0.0297 H       
  49 H49            0.6047     5.9952     0.2386 H       
  50 H50           -2.2335    -5.4816     1.1536 H       
  51 H51           -1.1619    -7.6868     0.9443 H       
  52 H52            1.8063    -6.0002    -1.6304 H       
  53 H53            0.7300    -3.7966    -1.4276 H       
  54 H54           -0.9796    -8.9684    -0.6268 H       
  55 H55            0.0805    -9.3674    -2.0083 H       
  56 H56           -0.4036   -10.9454     0.3742 H       
  57 H57            1.5867   -10.7608     1.5926 H       
  58 H58            2.5691   -10.4777     0.1180 H       
  59 H59            2.4725    -8.2621     1.0629 H       
  60 H60            0.7857    -8.4882     1.6293 H       
  61 H61            0.3147   -13.2350    -0.0363 H       
  62 H62            1.4202   -13.5833    -1.3871 H       
  63 H63            2.0099   -12.6977     0.0398 H       
  64 H64           -0.5182   -10.8384    -2.7236 H       
  65 H65           -0.0127   -12.5295    -2.9534 H       
  66 H66           -1.2022   -12.1194    -1.6944 H       
@<TRIPOS>BOND
   1    1    2 1
   2    1    9 ar
   3    1   10 ar
   4    2    3 1
   5    2    6 1
   6    3    4 2
   7    4    5 1
   8    4    8 1
   9    5    6 2
  10    6    7 1
  11    7   34 1
  12    7   35 1
  13    8   20 1
  14    8   36 1
  15    9   13 ar
  16   10   11 ar
  17   11   12 ar
  18   11   14 1
  19   12   13 ar
  20   12   19 1
  21   13   37 1
  22   14   15 1
  23   14   38 1
  24   14   39 1
  25   15   16 1
  26   15   40 1
  27   15   41 1
  28   16   17 1
  29   16   42 1
  30   16   43 1
  31   17   18 1
  32   17   44 1
  33   17   45 1
  34   18   19 1
  35   18   46 1
  36   18   47 1
  37   19   48 1
  38   19   49 1
  39   20   21 ar
  40   20   25 ar
  41   21   22 ar
  42   21   50 1
  43   22   23 ar
  44   22   51 1
  45   23   24 ar
  46   23   26 1
  47   24   25 ar
  48   24   52 1
  49   25   53 1
  50   26   27 1
  51   26   30 1
  52   27   28 1
  53   27   54 1
  54   27   55 1
  55   28   29 1
  56   28   31 1
  57   28   56 1
  58   29   30 1
  59   29   57 1
  60   29   58 1
  61   30   59 1
  62   30   60 1
  63   31   32 1
  64   31   33 1
  65   32   61 1
  66   32   62 1
  67   32   63 1
  68   33   64 1
  69   33   65 1
  70   33   66 1

#	End of record

