#	Name: ASD01890400
#	Creating user name:	WinNT
#	Creation time:	15. 06. 2019 19:50

#	Modifying user name:	WinNT
#	Modification time:	15. 06. 2019 19:50

#	Program:	/corina/corina34_cracker 3.40 0067  02.08.2006

@<TRIPOS>MOLECULE
ASD01890400
  45   46    0    0    0
SMALL
NO_CHARGES


@<TRIPOS>ATOM
   1 C1             0.9623     0.1554    -0.9051 C.2     
   2 C2            -0.4092     0.0628    -0.2877 C.3     
   3 C3            -1.3623    -0.5636    -1.2727 C.2     
   4 O4             1.2102    -0.4515    -1.9200 O.2     
   5 O5             1.9070     0.9166    -0.3306 O.3     
   6 O6            -0.9342    -1.1953    -2.2095 O.2     
   7 O7            -2.6868    -0.4198    -1.1093 O.3     
   8 C8            -0.3428    -0.7978     0.9756 C.3     
   9 C9            -1.7543    -0.9986     1.5307 C.3     
  10 C10           -2.2942     0.3206     2.0198 C.2     
  11 O11           -1.5803     1.3007     2.0323 O.2     
  12 C12            0.2602    -2.1374     0.6397 C.ar    
  13 C13            1.4247    -2.5466     1.2622 C.ar    
  14 C14            1.9783    -3.7751     0.9545 C.ar    
  15 C15            1.3667    -4.5954     0.0233 C.ar    
  16 C16            0.2013    -4.1853    -0.5994 C.ar    
  17 C17           -0.3544    -2.9590    -0.2867 C.ar    
  18 Cl18           2.0616    -6.1383    -0.3641 Cl      
  19 C19           -3.6872     0.4193     2.4821 C.ar    
  20 C20           -4.2250     1.6622     2.8327 C.ar    
  21 C21           -5.5310     1.7470     3.2650 C.ar    
  22 C22           -6.3105     0.6052     3.3533 C.ar    
  23 C23           -5.7846    -0.6291     3.0083 C.ar    
  24 C24           -4.4823    -0.7284     2.5679 C.ar    
  25 Br25          -8.1010     0.7320     3.9482 Br      
  26 C26            3.2298     0.8888    -0.9287 C.3     
  27 C27           -3.5450    -1.0502    -2.0964 C.3     
  28 H28           -0.7593     1.0621    -0.0286 H       
  29 H29            0.2740    -0.2988     1.7231 H       
  30 H30           -2.4019    -1.3873     0.7448 H       
  31 H31           -1.7218    -1.7072     2.3583 H       
  32 H32            1.9023    -1.9060     1.9889 H       
  33 H33            2.8882    -4.0945     1.4407 H       
  34 H34           -0.2766    -4.8252    -1.3264 H       
  35 H35           -1.2665    -2.6407    -0.7695 H       
  36 H36           -3.6183     2.5531     2.7650 H       
  37 H37           -5.9476     2.7059     3.5360 H       
  38 H38           -6.3980    -1.5151     3.0803 H       
  39 H39           -4.0751    -1.6907     2.2947 H       
  40 H40            3.1829     1.3077    -1.9339 H       
  41 H41            3.9158     1.4788    -0.3209 H       
  42 H42            3.5837    -0.1409    -0.9803 H       
  43 H43           -3.3255    -0.6414    -3.0828 H       
  44 H44           -3.3654    -2.1253    -2.1005 H       
  45 H45           -4.5884    -0.8571    -1.8471 H       
@<TRIPOS>BOND
   1    1    2 1
   2    1    4 2
   3    1    5 1
   4    2    3 1
   5    2    8 1
   6    2   28 1
   7    3    6 2
   8    3    7 1
   9    5   26 1
  10    7   27 1
  11    8    9 1
  12    8   12 1
  13    8   29 1
  14    9   10 1
  15    9   30 1
  16    9   31 1
  17   10   11 2
  18   10   19 1
  19   12   13 ar
  20   12   17 ar
  21   13   14 ar
  22   13   32 1
  23   14   15 ar
  24   14   33 1
  25   15   16 ar
  26   15   18 1
  27   16   17 ar
  28   16   34 1
  29   17   35 1
  30   19   20 ar
  31   19   24 ar
  32   20   21 ar
  33   20   36 1
  34   21   22 ar
  35   21   37 1
  36   22   23 ar
  37   22   25 1
  38   23   24 ar
  39   23   38 1
  40   24   39 1
  41   26   40 1
  42   26   41 1
  43   26   42 1
  44   27   43 1
  45   27   44 1
  46   27   45 1

#	End of record

