#	Name: ASD03740108
#	Creating user name:	WinNT
#	Creation time:	15. 06. 2019 20:46

#	Modifying user name:	WinNT
#	Modification time:	15. 06. 2019 20:46

#	Program:	/corina/corina34_cracker 3.40 0067  02.08.2006

@<TRIPOS>MOLECULE
ASD03740108
  28   30    0    0    0
SMALL
NO_CHARGES


@<TRIPOS>ATOM
   1 C1            -0.0167     1.3815     0.0096 C.ar    
   2 C2             0.0021    -0.0041     0.0020 C.ar    
   3 C3             1.2003    -0.6897    -0.0132 C.ar    
   4 C4             2.3987     0.0098    -0.0209 C.ar    
   5 C5             2.3803     1.4148    -0.0132 C.ar    
   6 C6             1.1644     2.0940     0.0022 C.ar    
   7 N7             3.7265    -0.3879    -0.0358 N.pl3   
   8 N8             4.5509     0.7417    -0.0376 N.am    
   9 C9             3.7874     1.8530    -0.0243 C.2     
  10 C10            4.1938    -1.7764    -0.0477 C.3     
  11 C11            4.3404    -2.2448    -1.4725 C.ar    
  12 C12            5.5382    -2.0855    -2.1523 C.ar    
  13 C13            5.6356    -2.5278    -3.4580 C.ar    
  14 N14            4.6064    -3.0949    -4.0566 N.ar    
  15 C15            3.4524    -3.2627    -3.4410 C.ar    
  16 C16            3.2824    -2.8506    -2.1328 C.ar    
  17 O17            4.1854     3.0020    -0.0219 O.2     
  18 H18           -0.9607     1.9061     0.0170 H       
  19 H19           -0.9285    -0.5522     0.0084 H       
  20 H20            1.2050    -1.7697    -0.0186 H       
  21 H21            1.1464     3.1738     0.0078 H       
  22 H22            5.5207     0.7279    -0.0470 H       
  23 H23            5.1581    -1.8395     0.4566 H       
  24 H24            3.4711    -2.4074     0.4697 H       
  25 H25            6.3844    -1.6212    -1.6677 H       
  26 H26            6.5651    -2.4074    -3.9945 H       
  27 H27            2.6317    -3.7311    -3.9640 H       
  28 H28            2.3349    -2.9911    -1.6340 H       
@<TRIPOS>BOND
   1    1    2 ar
   2    1    6 ar
   3    1   18 1
   4    2    3 ar
   5    2   19 1
   6    3    4 ar
   7    3   20 1
   8    4    5 ar
   9    4    7 1
  10    5    6 ar
  11    5    9 1
  12    6   21 1
  13    7    8 1
  14    7   10 1
  15    8    9 am
  16    8   22 1
  17    9   17 2
  18   10   11 1
  19   10   23 1
  20   10   24 1
  21   11   12 ar
  22   11   16 ar
  23   12   13 ar
  24   12   25 1
  25   13   14 ar
  26   13   26 1
  27   14   15 ar
  28   15   16 ar
  29   15   27 1
  30   16   28 1

#	End of record

