#	Name: ASD02448171
#	Creating user name:	WinNT
#	Creation time:	15. 06. 2019 20:21

#	Modifying user name:	WinNT
#	Modification time:	15. 06. 2019 20:21

#	Program:	/corina/corina34_cracker 3.40 0067  02.08.2006

@<TRIPOS>MOLECULE
ASD02448171
  85   91    0    0    0
SMALL
NO_CHARGES


@<TRIPOS>ATOM
   1 C1             3.5339    -7.4367    -1.5372 C.ar    
   2 C2             2.9799    -6.4070    -0.8033 C.ar    
   3 C3             2.3289    -5.3654    -1.4502 C.ar    
   4 C4             2.2343    -5.3589    -2.8352 C.ar    
   5 C5             2.7880    -6.3882    -3.5699 C.ar    
   6 C6             3.4399    -7.4304    -2.9230 C.ar    
   7 N7             4.0012    -8.4728    -3.6667 N.am    
   8 C8             5.1112    -9.3566    -3.2870 C.3     
   9 C9             5.4103   -10.3475    -4.3653 C.2     
  10 N10            4.6303   -10.2485    -5.4510 N.am    
  11 S11            3.5589    -9.0025    -5.1856 S.o2    
  12 O12            6.2903   -11.1761    -4.2659 O.2     
  13 O13            2.2646    -9.5787    -5.0763 O.2     
  14 O14            3.8900    -7.9636    -6.0968 O.2     
  15 N15            1.7658    -4.3187    -0.7037 N.pl3   
  16 C16            0.8447    -4.4428     0.3015 C.2     
  17 C17            2.0380    -2.9946    -0.8404 C.2     
  18 N18            1.3300    -2.3267     0.0273 N.2     
  19 C19            0.5826    -3.1867     0.7484 C.2     
  20 C20           -0.3589    -2.8255     1.8366 C.ar    
  21 C21           -0.5329    -1.4892     2.1967 C.ar    
  22 C22           -1.0766    -3.8194     2.4986 C.ar    
  23 C23           -1.9513    -3.4784     3.5104 C.ar    
  24 C24           -2.1166    -2.1515     3.8683 C.ar    
  25 C25           -1.4106    -1.1589     3.2103 C.ar    
  26 Cl26          -3.2189    -1.7300     5.1414 Cl      
  27 Cl27           0.3524    -0.2439     1.3726 Cl      
  28 C28            4.3390    -2.1869    -1.1706 C.ar    
  29 C29            5.2540    -3.2232    -1.1240 C.ar    
  30 C30            6.4828    -3.0358    -0.5241 C.ar    
  31 C31            6.8009    -1.7997     0.0352 C.ar    
  32 C32            5.8752    -0.7592    -0.0147 C.ar    
  33 C33            4.6494    -0.9579    -0.6170 C.ar    
  34 C34            8.1199    -1.5924     0.6819 C.ar    
  35 C35            3.0014    -2.3958    -1.8325 C.3     
  36 C36            8.4368    -0.3556     1.2409 C.ar    
  37 C37            9.0424    -2.6358     0.7366 C.ar    
  38 C38           10.2676    -2.4402     1.3387 C.ar    
  39 C39           10.5825    -1.2056     1.8901 C.ar    
  40 C40            9.6636    -0.1660     1.8417 C.ar    
  41 O41           11.7902    -1.0160     2.4831 O.3     
  42 C42           12.0484     0.2788     3.0297 C.3     
  43 C43           13.4467     0.3009     3.6503 C.3     
  44 C44           13.7231     1.6872     4.2355 C.3     
  45 C45           15.0682     1.6741     4.9645 C.3     
  46 C46           15.3447     3.0604     5.5498 C.3     
  47 C47           15.3868     4.0917     4.4203 C.3     
  48 C48           14.0417     4.1048     3.6913 C.3     
  49 C49           13.7652     2.7185     3.1061 C.3     
  50 H50            4.0442    -8.2447    -1.0341 H       
  51 H51            3.0527    -6.4120     0.2742 H       
  52 H52            1.7272    -4.5488    -3.3380 H       
  53 H53            2.7141    -6.3833    -4.6473 H       
  54 H54            5.9997    -8.7535    -3.0999 H       
  55 H55            4.8460    -9.8909    -2.3747 H       
  56 H56            4.6793   -10.8036    -6.2450 H       
  57 H57            0.4105    -5.3612     0.6681 H       
  58 H58           -0.9489    -4.8551     2.2202 H       
  59 H59           -2.5081    -4.2484     4.0236 H       
  60 H60           -1.5431    -0.1251     3.4933 H       
  61 H61            5.0063    -4.1809    -1.5575 H       
  62 H62            7.1963    -3.8458    -0.4879 H       
  63 H63            6.1165     0.2008     0.4173 H       
  64 H64            3.9313    -0.1522    -0.6562 H       
  65 H65            3.1169    -3.0714    -2.6800 H       
  66 H66            2.6151    -1.4381    -2.1814 H       
  67 H67            7.7225     0.4536     1.2033 H       
  68 H68            8.7979    -3.5965     0.3082 H       
  69 H69           10.9827    -3.2484     1.3818 H       
  70 H70            9.9113     0.7933     2.2715 H       
  71 H71           11.9904     1.0256     2.2379 H       
  72 H72           11.3070     0.5039     3.7964 H       
  73 H73           13.5046    -0.4460     4.4421 H       
  74 H74           14.1880     0.0757     2.8835 H       
  75 H75           12.9318     1.9495     4.9378 H       
  76 H76           15.0383     0.9394     5.7691 H       
  77 H77           15.8595     1.4118     4.2623 H       
  78 H78           14.5534     3.3227     6.2520 H       
  79 H79           16.3030     3.0511     6.0691 H       
  80 H80           15.5837     5.0793     4.8373 H       
  81 H81           16.1781     3.8294     3.7181 H       
  82 H82           13.2504     4.3671     4.3936 H       
  83 H83           14.0716     4.8395     2.8867 H       
  84 H84           14.5565     2.4562     2.4038 H       
  85 H85           12.8069     2.7278     2.5867 H       
@<TRIPOS>BOND
   1    1    2 ar
   2    1    6 ar
   3    1   50 1
   4    2    3 ar
   5    2   51 1
   6    3    4 ar
   7    3   15 1
   8    4    5 ar
   9    4   52 1
  10    5    6 ar
  11    5   53 1
  12    6    7 1
  13    7    8 1
  14    7   11 am
  15    8    9 1
  16    8   54 1
  17    8   55 1
  18    9   10 am
  19    9   12 2
  20   10   11 am
  21   10   56 1
  22   11   13 2
  23   11   14 2
  24   15   16 1
  25   15   17 1
  26   16   19 2
  27   16   57 1
  28   17   18 2
  29   17   35 1
  30   18   19 1
  31   19   20 1
  32   20   21 ar
  33   20   22 ar
  34   21   27 1
  35   21   25 ar
  36   22   23 ar
  37   22   58 1
  38   23   24 ar
  39   23   59 1
  40   24   25 ar
  41   24   26 1
  42   25   60 1
  43   28   29 ar
  44   28   33 ar
  45   28   35 1
  46   29   30 ar
  47   29   61 1
  48   30   31 ar
  49   30   62 1
  50   31   32 ar
  51   31   34 1
  52   32   33 ar
  53   32   63 1
  54   33   64 1
  55   34   36 ar
  56   34   37 ar
  57   35   65 1
  58   35   66 1
  59   36   40 ar
  60   36   67 1
  61   37   38 ar
  62   37   68 1
  63   38   39 ar
  64   38   69 1
  65   39   40 ar
  66   39   41 1
  67   40   70 1
  68   41   42 1
  69   42   43 1
  70   42   71 1
  71   42   72 1
  72   43   44 1
  73   43   73 1
  74   43   74 1
  75   44   45 1
  76   44   49 1
  77   44   75 1
  78   45   46 1
  79   45   76 1
  80   45   77 1
  81   46   47 1
  82   46   78 1
  83   46   79 1
  84   47   48 1
  85   47   80 1
  86   47   81 1
  87   48   49 1
  88   48   82 1
  89   48   83 1
  90   49   84 1
  91   49   85 1

#	End of record

