#	Name: ASD01148913
#	Creating user name:	WinNT
#	Creation time:	15. 06. 2019 19:03

#	Modifying user name:	WinNT
#	Modification time:	15. 06. 2019 19:03

#	Program:	/corina/corina34_cracker 3.40 0067  02.08.2006

@<TRIPOS>MOLECULE
ASD01148913
  38   40    0    0    0
SMALL
NO_CHARGES


@<TRIPOS>ATOM
   1 C1            -0.4573     0.2901    -0.4685 C.ar    
   2 C2            -0.1352    -1.0545    -0.4514 C.ar    
   3 C3             1.1841    -1.4487    -0.3428 C.ar    
   4 C4             2.1873    -0.4933    -0.2509 C.ar    
   5 C5             1.8608     0.8560    -0.2684 C.ar    
   6 C6             0.5397     1.2440    -0.3772 C.ar    
   7 S7            -2.1408     0.7892    -0.6145 S.o2    
   8 O8            -2.1242     2.1060    -1.1483 O.2     
   9 O9            -2.8275    -0.2911    -1.2316 O.2     
  10 N10           -2.7498     0.9144     0.9204 N.am    
  11 N11            3.5267    -0.8902    -0.1402 N.pl3   
  12 C12            4.4996    -0.7042    -1.0918 C.2     
  13 C13            5.6617    -1.2263    -0.6089 C.2     
  14 C14            5.3906    -1.7434     0.6688 C.2     
  15 C15            4.0850    -1.5213     0.9340 C.2     
  16 C16            3.3652    -1.9086     2.2001 C.3     
  17 C17            4.3179    -0.0531    -2.4065 C.ar    
  18 C18            5.4201     0.4587    -3.0932 C.ar    
  19 C19            5.2442     1.0647    -4.3199 C.ar    
  20 C20            3.9778     1.1658    -4.8700 C.ar    
  21 C21            2.8806     0.6606    -4.1935 C.ar    
  22 C22            3.0443     0.0472    -2.9688 C.ar    
  23 Br23           3.7455     1.9981    -6.5520 Br      
  24 H24           -0.9160    -1.7972    -0.5225 H       
  25 H25            1.4350    -2.4991    -0.3291 H       
  26 H26            2.6389     1.6015    -0.1967 H       
  27 H27            0.2851     2.2935    -0.3913 H       
  28 H28           -2.1835     0.7218     1.6841 H       
  29 H29           -3.6727     1.1805     1.0558 H       
  30 H30            6.6156    -1.2400    -1.1151 H       
  31 H31            6.1000    -2.2278     1.3235 H       
  32 H32            2.9558    -2.9131     2.0926 H       
  33 H33            4.0643    -1.8887     3.0362 H       
  34 H34            2.5548    -1.2041     2.3873 H       
  35 H35            6.4085     0.3807    -2.6649 H       
  36 H36            6.0962     1.4614    -4.8520 H       
  37 H37            1.8951     0.7431    -4.6274 H       
  38 H38            2.1883    -0.3509    -2.4442 H       
@<TRIPOS>BOND
   1    1    2 ar
   2    1    6 ar
   3    1    7 1
   4    2    3 ar
   5    2   24 1
   6    3    4 ar
   7    3   25 1
   8    4    5 ar
   9    4   11 1
  10    5    6 ar
  11    5   26 1
  12    6   27 1
  13    7    8 2
  14    7    9 2
  15    7   10 am
  16   10   28 1
  17   10   29 1
  18   11   12 1
  19   11   15 1
  20   12   13 2
  21   12   17 1
  22   13   14 1
  23   13   30 1
  24   14   15 2
  25   14   31 1
  26   15   16 1
  27   16   32 1
  28   16   33 1
  29   16   34 1
  30   17   18 ar
  31   17   22 ar
  32   18   19 ar
  33   18   35 1
  34   19   20 ar
  35   19   36 1
  36   20   21 ar
  37   20   23 1
  38   21   22 ar
  39   21   37 1
  40   22   38 1

#	End of record

