#	Name: ASD06590033
#	Creating user name:	WinNT
#	Creation time:	15. 06. 2019 21:06

#	Modifying user name:	WinNT
#	Modification time:	15. 06. 2019 21:06

#	Program:	/corina/corina34_cracker 3.40 0067  02.08.2006

@<TRIPOS>MOLECULE
ASD06590033
 302  302    0    0    0
SMALL
NO_CHARGES


@<TRIPOS>ATOM
   1 C1           -10.3437    -8.6492    11.0276 C.2     
   2 O2           -10.1190    -9.7273    10.5196 O.2     
   3 N3            -8.2881    -9.0253    12.2613 N.am    
   4 C4            -9.3940    -8.0871    12.0538 C.3     
   5 C5            -8.8415    -6.7491    11.5585 C.3     
   6 C6            -8.0530    -6.9686    10.2931 C.2     
   7 O7            -8.0074    -8.0674     9.7927 O.2     
   8 O8            -7.4013    -5.9435     9.7221 O.3     
   9 C9           -13.1042    -7.3652     9.0041 C.2     
  10 O10          -12.9371    -6.2246     9.3810 O.2     
  11 N11          -11.4399    -7.9513    10.6702 N.am    
  12 C12          -12.3600    -8.4949     9.6682 C.3     
  13 C13          -13.3588    -9.4331    10.3487 C.3     
  14 C14          -12.6017   -10.5649    11.0464 C.3     
  15 O15          -14.1177    -8.7019    11.3139 O.3     
  16 C16          -15.9969    -7.1092     6.7838 C.2     
  17 O17          -16.2009    -8.3042     6.8202 O.2     
  18 N18          -13.9554    -7.6223     7.9913 N.am    
  19 C19          -14.7506    -6.5381     7.4096 C.3     
  20 C20          -13.9266    -5.8186     6.3399 C.3     
  21 C21          -12.7264    -5.1332     6.9961 C.3     
  22 C22          -11.9024    -4.4136     5.9264 C.3     
  23 N23          -10.7531    -3.7573     6.5547 N.pl3   
  24 C24           -9.8640    -3.0440     5.7861 C.2     
  25 N25          -10.0435    -2.9517     4.4984 N.2     
  26 N26           -8.7855    -2.4282     6.3757 N.pl3   
  27 C27          -18.5853    -5.9197     4.4928 C.2     
  28 O28          -17.9810    -4.8959     4.2530 O.2     
  29 N29          -16.8850    -6.2920     6.1838 N.am    
  30 C30          -18.0966    -6.8471     5.5755 C.3     
  31 C31          -19.1804    -6.9989     6.6447 C.3     
  32 C32          -18.7354    -8.0351     7.6786 C.3     
  33 C33          -19.8029    -8.1846     8.7317 C.2     
  34 O34          -20.8197    -7.5271     8.6621 O.2     
  35 N35          -19.6278    -9.0490     9.7509 N.am    
  36 C36          -21.6500    -5.5226     2.5401 C.2     
  37 O37          -22.2495    -6.3352     3.2117 O.2     
  38 N38          -19.6939    -6.2281     3.7911 N.am    
  39 C39          -20.1690    -5.3266     2.7386 C.3     
  40 C40          -19.4341    -5.6353     1.4326 C.3     
  41 C41          -17.9466    -5.3172     1.5970 C.3     
  42 C42          -17.2228    -5.6212     0.3107 C.2     
  43 O43          -17.8363    -6.0501    -0.6436 O.2     
  44 N44          -15.8937    -5.4166     0.2207 N.am    
  45 C45          -24.1259    -4.5733     0.0239 C.2     
  46 O46          -23.2764    -4.1612    -0.7374 O.2     
  47 N47          -22.3082    -4.7947     1.6163 N.am    
  48 C48          -23.7478    -4.9852     1.4233 C.3     
  49 C49          -24.5154    -4.1283     2.4321 C.3     
  50 C50          -24.2317    -4.6205     3.8279 C.ar    
  51 C51          -23.1690    -4.0977     4.5414 C.ar    
  52 C52          -22.9065    -4.5475     5.8209 C.ar    
  53 C53          -23.7106    -5.5243     6.3900 C.ar    
  54 O54          -23.4548    -5.9682     7.6488 O.3     
  55 C55          -24.7766    -6.0470     5.6723 C.ar    
  56 C56          -25.0380    -5.5901     4.3950 C.ar    
  57 C57          -27.2294    -3.8669    -1.7740 C.2     
  58 O58          -27.8932    -3.9149    -0.7601 O.2     
  59 N59          -25.4081    -4.6628    -0.3818 N.am    
  60 C60          -25.7756    -4.2624    -1.7422 C.3     
  61 C61          -25.5447    -5.4341    -2.6987 C.3     
  62 C62          -24.0500    -5.7547    -2.7610 C.3     
  63 C63          -23.8192    -6.9264    -3.7174 C.3     
  64 N64          -22.3879    -7.2333    -3.7771 N.pl3   
  65 C65          -21.9371    -8.2563    -4.5774 C.2     
  66 N66          -22.7830    -8.9530    -5.2830 N.2     
  67 N67          -20.5939    -8.5444    -4.6334 N.pl3   
  68 C68          -29.7449    -3.2571    -4.3554 C.2     
  69 O69          -29.0203    -3.6672    -5.2372 O.2     
  70 N70          -27.7920    -3.4600    -2.9292 N.am    
  71 C71          -29.2054    -3.0756    -2.9600 C.3     
  72 C72          -29.3442    -1.6091    -2.5463 C.3     
  73 C73          -28.9126    -1.4478    -1.0874 C.3     
  74 C74          -29.0514     0.0187    -0.6736 C.3     
  75 C75          -28.6199     0.1800     0.7853 C.3     
  76 N76          -28.7531     1.5880     1.1826 N.3     
  77 C77          -32.7590    -2.1745    -6.1354 C.2     
  78 O78          -33.3028    -1.7335    -5.1451 O.2     
  79 N79          -31.0328    -2.9637    -4.6233 N.am    
  80 C80          -31.5292    -3.0348    -5.9999 C.3     
  81 C81          -31.8805    -4.4843    -6.3411 C.3     
  82 C82          -32.3878    -4.5603    -7.7825 C.3     
  83 C83          -31.2468    -4.2201    -8.7434 C.3     
  84 C84          -32.8930    -5.9753    -8.0714 C.3     
  85 C85          -35.1189    -1.4224    -8.8371 C.2     
  86 O86          -34.4415    -1.8996    -9.7228 O.2     
  87 N87          -33.2546    -1.8951    -7.3572 N.am    
  88 C88          -34.5097    -1.1504    -7.4859 C.3     
  89 C89          -34.2309     0.3472    -7.3442 C.3     
  90 C90          -35.5526     1.1173    -7.3757 C.3     
  91 C91          -36.3668     0.7844    -6.1239 C.3     
  92 C92          -35.2667     2.6198    -7.4135 C.3     
  93 C93          -38.1744    -0.4029   -10.5656 C.2     
  94 O94          -38.5130     0.3242    -9.6559 O.2     
  95 N95          -36.4165    -1.1352    -9.0615 N.am    
  96 C96          -36.9855    -1.3140   -10.3995 C.3     
  97 C97          -37.4286    -2.7678   -10.5753 C.3     
  98 C98          -36.2036    -3.6833   -10.5308 C.3     
  99 C99          -36.6467    -5.1371   -10.7065 C.3     
 100 C100         -35.4216    -6.0526   -10.6621 C.3     
 101 N101         -35.8471    -7.4485   -10.8308 N.3     
 102 C102         -40.9450    -0.0801   -12.9284 C.2     
 103 O103         -40.6681    -1.1233   -13.4816 O.2     
 104 N104         -38.8613    -0.3960   -11.7252 N.am    
 105 C105         -40.0171     0.4897   -11.8866 C.3     
 106 C106         -39.5405     1.8742   -12.3305 C.3     
 107 O107         -38.9511     1.7813   -13.6290 O.3     
 108 C108         -43.7982     1.1277   -14.8683 C.2     
 109 O109         -43.6974     2.2580   -14.4404 O.2     
 110 N110         -42.0825     0.5696   -13.2454 N.am    
 111 C111         -42.9845     0.0156   -14.2582 C.3     
 112 C112         -43.9212    -1.0025   -13.6048 C.3     
 113 C113         -43.0947    -2.1269   -12.9775 C.3     
 114 O114         -44.6938    -0.3567   -12.5908 O.3     
 115 C115         -46.7671     1.9895   -15.5831 C.2     
 116 O116         -46.9201     1.2326   -14.6538 O.2     
 117 N117         -44.6380     0.8661   -15.8895 N.am    
 118 C118         -45.5093     1.9225   -16.4103 C.3     
 119 C119         -45.8711     1.6143   -17.8646 C.3     
 120 C120         -44.6050     1.6461   -18.7230 C.3     
 121 C121         -44.9453     1.2126   -20.1502 C.3     
 122 C122         -44.0380     3.0671   -18.7430 C.3     
 123 O123         -47.7175     2.8901   -15.8786 O.3     
 124 C124          -7.5730    -8.9821    13.4029 C.2     
 125 O125          -7.7849    -8.1099    14.2186 O.2     
 126 C126           5.6363   -15.4501    25.0162 C.3     
 127 C127           4.5572   -14.3988    24.7492 C.3     
 128 C128           3.9011   -14.6740    23.3947 C.3     
 129 C129           2.8220   -13.6227    23.1277 C.3     
 130 C130           2.1659   -13.8979    21.7732 C.3     
 131 C131           1.0868   -12.8467    21.5063 C.3     
 132 C132           0.4307   -13.1219    20.1518 C.3     
 133 C133          -0.6484   -12.0706    19.8848 C.3     
 134 C134          -1.3045   -12.3458    18.5303 C.3     
 135 C135          -2.3836   -11.2945    18.2633 C.3     
 136 C136          -3.0397   -11.5697    16.9088 C.3     
 137 C137          -4.1188   -10.5184    16.6418 C.3     
 138 C138          -4.7750   -10.7936    15.2873 C.3     
 139 C139          -5.8540    -9.7424    15.0204 C.3     
 140 C140          -6.5102   -10.0176    13.6659 C.3     
 141 H141          -8.0706    -9.6776    11.5772 H       
 142 H142          -9.9235    -7.9357    12.9944 H       
 143 H143          -9.6675    -6.0667    11.3581 H       
 144 H144          -8.1922    -6.3194    12.3213 H       
 145 H145          -6.9091    -6.1331     8.9116 H       
 146 H146         -11.6197    -7.0890    11.0765 H       
 147 H147         -11.7948    -9.0482     8.9182 H       
 148 H148         -14.0310    -9.8529     9.6003 H       
 149 H149         -12.0031   -10.1543    11.8595 H       
 150 H150         -13.3143   -11.2854    11.4478 H       
 151 H151         -11.9483   -11.0612    10.3289 H       
 152 H152         -14.6244    -7.9674    10.9413 H       
 153 H153         -14.0415    -8.5253     7.6475 H       
 154 H154         -15.0278    -5.8310     8.1914 H       
 155 H155         -13.5746    -6.5422     5.6046 H       
 156 H156         -14.5467    -5.0707     5.8457 H       
 157 H157         -13.0784    -4.4096     7.7313 H       
 158 H158         -12.1063    -5.8811     7.4903 H       
 159 H159         -11.5504    -5.1372     5.1911 H       
 160 H160         -12.5224    -3.6657     5.4322 H       
 161 H161         -10.6195    -3.8260     7.5130 H       
 162 H162          -9.4162    -2.4485     3.9561 H       
 163 H163          -8.6519    -2.4969     7.3340 H       
 164 H164          -8.1581    -1.9249     5.8334 H       
 165 H165         -16.7218    -5.3362     6.1547 H       
 166 H166         -17.8724    -7.8228     5.1443 H       
 167 H167         -19.3416    -6.0400     7.1373 H       
 168 H168         -20.1085    -7.3277     6.1771 H       
 169 H169         -18.5742    -8.9939     7.1859 H       
 170 H170         -17.8073    -7.7063     8.1462 H       
 171 H171         -18.8147    -9.5748     9.8065 H       
 172 H172         -20.3150    -9.1452    10.4287 H       
 173 H173         -20.1772    -7.0470     3.9830 H       
 174 H174         -19.9749    -4.2942     3.0295 H       
 175 H175         -19.5552    -6.6906     1.1883 H       
 176 H176         -19.8493    -5.0264     0.6295 H       
 177 H177         -17.8256    -4.2619     1.8414 H       
 178 H178         -17.5315    -5.9260     2.4002 H       
 179 H179         -15.4030    -5.0736     0.9839 H       
 180 H180         -15.4278    -5.6122    -0.6073 H       
 181 H181         -21.8286    -4.1447     1.0792 H       
 182 H182         -23.9987    -6.0352     1.5733 H       
 183 H183         -24.1985    -3.0893     2.3417 H       
 184 H184         -25.5843    -4.2009     2.2315 H       
 185 H185         -22.5433    -3.3373     4.0978 H       
 186 H186         -22.0759    -4.1394     6.3775 H       
 187 H187         -23.9096    -5.4699     8.3416 H       
 188 H188         -25.4038    -6.8077     6.1130 H       
 189 H189         -25.8703    -5.9934     3.8375 H       
 190 H190         -26.0875    -4.9924     0.2270 H       
 191 H191         -25.1620    -3.4158    -2.0501 H       
 192 H192         -26.0892    -6.3079    -2.3408 H       
 193 H193         -25.9007    -5.1665    -3.6935 H       
 194 H194         -23.5056    -4.8808    -3.1189 H       
 195 H195         -23.6940    -6.0222    -1.7661 H       
 196 H196         -24.3636    -7.8002    -3.3595 H       
 197 H197         -24.1752    -6.6588    -4.7123 H       
 198 H198         -21.7584    -6.7149    -3.2519 H       
 199 H199         -22.4649    -9.6747    -5.8477 H       
 200 H200         -19.9644    -8.0259    -4.1082 H       
 201 H201         -20.2758    -9.2661    -5.1980 H       
 202 H202         -27.2611    -3.4217    -3.7401 H       
 203 H203         -29.7677    -3.7030    -2.2685 H       
 204 H204         -28.7115    -0.9906    -3.1829 H       
 205 H205         -30.3832    -1.2979    -2.6544 H       
 206 H206         -29.5453    -2.0663    -0.4508 H       
 207 H207         -27.8736    -1.7590    -0.9793 H       
 208 H208         -28.4187     0.6372    -1.3102 H       
 209 H209         -30.0904     0.3299    -0.7817 H       
 210 H210         -29.2525    -0.4385     1.4219 H       
 211 H211         -27.5808    -0.1312     0.8934 H       
 212 H212         -29.6940     1.9191     1.0305 H       
 213 H213         -28.4739     1.7207     2.1430 H       
 214 H214         -31.6310    -2.7055    -3.9048 H       
 215 H215         -30.7586    -2.6773    -6.6829 H       
 216 H216         -30.9929    -5.1080    -6.2349 H       
 217 H217         -32.6571    -4.8391    -5.6634 H       
 218 H218         -33.2022    -3.8488    -7.9191 H       
 219 H219         -30.4624    -4.9720    -8.6567 H       
 220 H220         -31.6248    -4.2054    -9.7656 H       
 221 H221         -30.8402    -3.2404    -8.4922 H       
 222 H222         -33.7059    -6.2177    -7.3869 H       
 223 H223         -33.2544    -6.0294    -9.0984 H       
 224 H224         -32.0787    -6.6868    -7.9348 H       
 225 H225         -32.7803    -2.1871    -8.1514 H       
 226 H226         -35.2015    -1.4667    -6.7051 H       
 227 H227         -33.7238     0.5345    -6.3976 H       
 228 H228         -33.5977     0.6784    -8.1673 H       
 229 H229         -36.1179     0.8326    -8.2631 H       
 230 H230         -35.7632     0.9751    -5.2365 H       
 231 H231         -37.2610     1.4071    -6.0958 H       
 232 H232         -36.6563    -0.2662    -6.1475 H       
 233 H233         -34.6866     2.8570    -8.3053 H       
 234 H234         -36.2083     3.1684    -7.4360 H       
 235 H235         -34.7014     2.9046    -6.5261 H       
 236 H236         -36.9735    -0.8102    -8.3370 H       
 237 H237         -36.2333    -1.0702   -11.1498 H       
 238 H238         -38.1138    -3.0384    -9.7719 H       
 239 H239         -37.9320    -2.8807   -11.5355 H       
 240 H240         -35.5184    -3.4127   -11.3342 H       
 241 H241         -35.7003    -3.5704    -9.5706 H       
 242 H242         -37.3319    -5.4078    -9.9032 H       
 243 H243         -37.1500    -5.2500   -11.6668 H       
 244 H244         -34.7365    -5.7820   -11.4655 H       
 245 H245         -34.9183    -5.9397    -9.7019 H       
 246 H246         -36.3727    -7.5657   -11.6841 H       
 247 H247         -35.0554    -8.0735   -10.8051 H       
 248 H248         -38.5905    -0.9775   -12.4528 H       
 249 H249         -40.5453     0.5745   -10.9369 H       
 250 H250         -40.3895     2.5569   -12.3649 H       
 251 H251         -38.8017     2.2486   -11.6220 H       
 252 H252         -38.6259     2.6239   -13.9745 H       
 253 H253         -42.3039     1.4039   -12.8030 H       
 254 H254         -42.3997    -0.4756   -15.0359 H       
 255 H255         -44.5881    -1.4193   -14.3595 H       
 256 H256         -42.5004    -1.7263   -12.1563 H       
 257 H257         -43.7623    -2.9009   -12.5991 H       
 258 H258         -42.4324    -2.5544   -13.7304 H       
 259 H259         -45.2438     0.3685   -12.9175 H       
 260 H260         -44.6655    -0.0215   -16.2796 H       
 261 H261         -44.9899     2.8795   -16.3601 H       
 262 H262         -46.3257     0.6254   -17.9242 H       
 263 H263         -46.5764     2.3609   -18.2296 H       
 264 H264         -43.8643     0.9653   -18.3033 H       
 265 H265         -44.0636     1.3185   -20.7822 H       
 266 H266         -45.2669     0.1711   -20.1467 H       
 267 H267         -45.7481     1.8393   -20.5386 H       
 268 H268         -43.7955     3.3759   -17.7262 H       
 269 H269         -43.1360     3.0897   -19.3545 H       
 270 H270         -44.7787     3.7478   -19.1627 H       
 271 H271         -48.5066     2.8952   -15.3196 H       
 272 H272           5.1831   -16.4414    25.0267 H       
 273 H273           6.3908   -15.4038    24.2309 H       
 274 H274           6.1037   -15.2540    25.9812 H       
 275 H275           3.8027   -14.4451    25.5345 H       
 276 H276           5.0103   -13.4075    24.7387 H       
 277 H277           4.6556   -14.6277    22.6094 H       
 278 H278           3.4479   -15.6653    23.4052 H       
 279 H279           2.0675   -13.6690    23.9130 H       
 280 H280           3.2751   -12.6314    23.1172 H       
 281 H281           2.9204   -13.8517    20.9880 H       
 282 H282           1.7127   -14.8892    21.7838 H       
 283 H283           0.3323   -12.8929    22.2916 H       
 284 H284           1.5399   -11.8554    21.4958 H       
 285 H285           1.1852   -13.0756    19.3665 H       
 286 H286          -0.0225   -14.1131    20.1623 H       
 287 H287          -1.4029   -12.1168    20.6701 H       
 288 H288          -0.1953   -11.0793    19.8743 H       
 289 H289          -0.5500   -12.2995    17.7450 H       
 290 H290          -1.7577   -13.3371    18.5408 H       
 291 H291          -3.1381   -11.3408    19.0486 H       
 292 H292          -1.9305   -10.3032    18.2528 H       
 293 H293          -2.2852   -11.5235    16.1235 H       
 294 H294          -3.4929   -12.5610    16.9193 H       
 295 H295          -4.8734   -10.5647    17.4271 H       
 296 H296          -3.6657    -9.5272    16.6313 H       
 297 H297          -4.0204   -10.7474    14.5021 H       
 298 H298          -5.2281   -11.7849    15.2978 H       
 299 H299          -6.6086    -9.7886    15.8057 H       
 300 H300          -5.4009    -8.7511    15.0099 H       
 301 H301          -6.9633   -11.0088    13.6764 H       
 302 H302          -5.7556    -9.9713    12.8806 H       
@<TRIPOS>BOND
   1    1    2 2
   2    1    4 1
   3    1   11 am
   4    3  124 am
   5    3    4 1
   6    3  141 1
   7    4    5 1
   8    4  142 1
   9    5    6 1
  10    5  143 1
  11    5  144 1
  12    6    7 2
  13    6    8 1
  14    8  145 1
  15    9   10 2
  16    9   12 1
  17    9   18 am
  18   11   12 1
  19   11  146 1
  20   12   13 1
  21   12  147 1
  22   13   14 1
  23   13   15 1
  24   13  148 1
  25   14  149 1
  26   14  150 1
  27   14  151 1
  28   15  152 1
  29   16   17 2
  30   16   19 1
  31   16   29 am
  32   18   19 1
  33   18  153 1
  34   19   20 1
  35   19  154 1
  36   20   21 1
  37   20  155 1
  38   20  156 1
  39   21   22 1
  40   21  157 1
  41   21  158 1
  42   22   23 1
  43   22  159 1
  44   22  160 1
  45   23   24 1
  46   23  161 1
  47   24   25 2
  48   24   26 1
  49   25  162 1
  50   26  163 1
  51   26  164 1
  52   27   28 2
  53   27   30 1
  54   27   38 am
  55   29   30 1
  56   29  165 1
  57   30   31 1
  58   30  166 1
  59   31   32 1
  60   31  167 1
  61   31  168 1
  62   32   33 1
  63   32  169 1
  64   32  170 1
  65   33   34 2
  66   33   35 am
  67   35  171 1
  68   35  172 1
  69   36   37 2
  70   36   39 1
  71   36   47 am
  72   38   39 1
  73   38  173 1
  74   39   40 1
  75   39  174 1
  76   40   41 1
  77   40  175 1
  78   40  176 1
  79   41   42 1
  80   41  177 1
  81   41  178 1
  82   42   43 2
  83   42   44 am
  84   44  179 1
  85   44  180 1
  86   45   46 2
  87   45   48 1
  88   45   59 am
  89   47   48 1
  90   47  181 1
  91   48   49 1
  92   48  182 1
  93   49   50 1
  94   49  183 1
  95   49  184 1
  96   50   51 ar
  97   50   56 ar
  98   51   52 ar
  99   51  185 1
 100   52   53 ar
 101   52  186 1
 102   53   54 1
 103   53   55 ar
 104   54  187 1
 105   55   56 ar
 106   55  188 1
 107   56  189 1
 108   57   58 2
 109   57   60 1
 110   57   70 am
 111   59   60 1
 112   59  190 1
 113   60   61 1
 114   60  191 1
 115   61   62 1
 116   61  192 1
 117   61  193 1
 118   62   63 1
 119   62  194 1
 120   62  195 1
 121   63   64 1
 122   63  196 1
 123   63  197 1
 124   64   65 1
 125   64  198 1
 126   65   66 2
 127   65   67 1
 128   66  199 1
 129   67  200 1
 130   67  201 1
 131   68   69 2
 132   68   71 1
 133   68   79 am
 134   70   71 1
 135   70  202 1
 136   71   72 1
 137   71  203 1
 138   72   73 1
 139   72  204 1
 140   72  205 1
 141   73   74 1
 142   73  206 1
 143   73  207 1
 144   74   75 1
 145   74  208 1
 146   74  209 1
 147   75   76 1
 148   75  210 1
 149   75  211 1
 150   76  212 1
 151   76  213 1
 152   77   78 2
 153   77   80 1
 154   77   87 am
 155   79   80 1
 156   79  214 1
 157   80   81 1
 158   80  215 1
 159   81   82 1
 160   81  216 1
 161   81  217 1
 162   82   83 1
 163   82   84 1
 164   82  218 1
 165   83  219 1
 166   83  220 1
 167   83  221 1
 168   84  222 1
 169   84  223 1
 170   84  224 1
 171   85   86 2
 172   85   88 1
 173   85   95 am
 174   87   88 1
 175   87  225 1
 176   88   89 1
 177   88  226 1
 178   89   90 1
 179   89  227 1
 180   89  228 1
 181   90   91 1
 182   90   92 1
 183   90  229 1
 184   91  230 1
 185   91  231 1
 186   91  232 1
 187   92  233 1
 188   92  234 1
 189   92  235 1
 190   93   94 2
 191   93   96 1
 192   93  104 am
 193   95   96 1
 194   95  236 1
 195   96   97 1
 196   96  237 1
 197   97   98 1
 198   97  238 1
 199   97  239 1
 200   98   99 1
 201   98  240 1
 202   98  241 1
 203   99  100 1
 204   99  242 1
 205   99  243 1
 206  100  101 1
 207  100  244 1
 208  100  245 1
 209  101  246 1
 210  101  247 1
 211  102  103 2
 212  102  105 1
 213  102  110 am
 214  104  105 1
 215  104  248 1
 216  105  106 1
 217  105  249 1
 218  106  107 1
 219  106  250 1
 220  106  251 1
 221  107  252 1
 222  108  109 2
 223  108  111 1
 224  108  117 am
 225  110  111 1
 226  110  253 1
 227  111  112 1
 228  111  254 1
 229  112  113 1
 230  112  114 1
 231  112  255 1
 232  113  256 1
 233  113  257 1
 234  113  258 1
 235  114  259 1
 236  115  116 2
 237  115  118 1
 238  115  123 1
 239  117  118 1
 240  117  260 1
 241  118  119 1
 242  118  261 1
 243  119  120 1
 244  119  262 1
 245  119  263 1
 246  120  121 1
 247  120  122 1
 248  120  264 1
 249  121  265 1
 250  121  266 1
 251  121  267 1
 252  122  268 1
 253  122  269 1
 254  122  270 1
 255  123  271 1
 256  124  125 2
 257  124  140 1
 258  126  127 1
 259  126  272 1
 260  126  273 1
 261  126  274 1
 262  127  128 1
 263  127  275 1
 264  127  276 1
 265  128  129 1
 266  128  277 1
 267  128  278 1
 268  129  130 1
 269  129  279 1
 270  129  280 1
 271  130  131 1
 272  130  281 1
 273  130  282 1
 274  131  132 1
 275  131  283 1
 276  131  284 1
 277  132  133 1
 278  132  285 1
 279  132  286 1
 280  133  134 1
 281  133  287 1
 282  133  288 1
 283  134  135 1
 284  134  289 1
 285  134  290 1
 286  135  136 1
 287  135  291 1
 288  135  292 1
 289  136  137 1
 290  136  293 1
 291  136  294 1
 292  137  138 1
 293  137  295 1
 294  137  296 1
 295  138  139 1
 296  138  297 1
 297  138  298 1
 298  139  140 1
 299  139  299 1
 300  139  300 1
 301  140  301 1
 302  140  302 1

#	End of record

