#	Name: ASD01230608
#	Creating user name:	WinNT
#	Creation time:	15. 06. 2019 19:14

#	Modifying user name:	WinNT
#	Modification time:	15. 06. 2019 19:14

#	Program:	/corina/corina34_cracker 3.40 0067  02.08.2006

@<TRIPOS>MOLECULE
ASD01230608
  47   50    0    0    0
SMALL
NO_CHARGES


@<TRIPOS>ATOM
   1 S1             0.0939     1.6034     0.1655 S.o2    
   2 N2            -0.0700    -0.0035    -0.1588 N.am    
   3 C3             0.8912    -0.7780    -0.4711 C.2     
   4 N4             2.2055    -0.3917    -0.5421 N.pl3   
   5 C5             2.6984     0.7753     0.1809 C.3     
   6 C6             1.8333     1.9893    -0.1636 C.3     
   7 C7             0.6248    -2.2416    -0.7837 C.3     
   8 C8             1.8105    -3.0458    -0.2446 C.3     
   9 C9             3.1077    -2.6469    -0.9353 C.3     
  10 C10            3.1021    -1.1906    -1.3841 C.3     
  11 C11           -0.6464    -2.6870    -0.1079 C.ar    
  12 C12           -1.7009    -3.1622    -0.8657 C.ar    
  13 C13           -2.8674    -3.5707    -0.2487 C.ar    
  14 C14           -2.9802    -3.5043     1.1326 C.ar    
  15 C15           -1.9204    -3.0275     1.8907 C.ar    
  16 C16           -0.7542    -2.6252     1.2692 C.ar    
  17 O17           -4.1268    -3.9051     1.7419 O.3     
  18 C18           -4.3530    -5.2376     1.8604 C.ar    
  19 C19           -5.5609    -5.6871     2.3792 C.ar    
  20 C20           -5.7789    -7.0487     2.4948 C.ar    
  21 C21           -4.7761    -7.9169     2.0852 C.ar    
  22 C22           -3.6003    -7.4001     1.5788 C.ar    
  23 N23           -3.4235    -6.0965     1.4758 N.ar    
  24 C24           -7.0753    -7.5769     3.0529 C.3     
  25 F25           -7.9908    -7.7610     2.0113 F       
  26 F26           -6.8439    -8.7997     3.6920 F       
  27 F27           -7.5944    -6.6604     3.9736 F       
  28 O28           -0.7439     2.2374    -0.7912 O.2     
  29 O29           -0.1821     1.7064     1.5556 O.2     
  30 H30            2.6491     0.5862     1.2532 H       
  31 H31            3.7313     0.9716    -0.1067 H       
  32 H32            1.9575     2.2367    -1.2178 H       
  33 H33            2.1390     2.8386     0.4475 H       
  34 H34            0.5414    -2.3813    -1.8615 H       
  35 H35            1.9063    -2.8663     0.8263 H       
  36 H36            1.6281    -4.1072    -0.4128 H       
  37 H37            3.9370    -2.8003    -0.2448 H       
  38 H38            3.2540    -3.2845    -1.8072 H       
  39 H39            2.7661    -1.1353    -2.4196 H       
  40 H40            4.1131    -0.7893    -1.3136 H       
  41 H41           -1.6126    -3.2136    -1.9408 H       
  42 H42           -3.6910    -3.9411    -0.8410 H       
  43 H43           -2.0058    -2.9745     2.9660 H       
  44 H44            0.0727    -2.2581     1.8591 H       
  45 H45           -6.3193    -4.9832     2.6886 H       
  46 H46           -4.9141    -8.9853     2.1622 H       
  47 H47           -2.8171    -8.0713     1.2588 H       
@<TRIPOS>BOND
   1    1    2 am
   2    1    6 1
   3    1   28 2
   4    1   29 2
   5    2    3 2
   6    3    4 1
   7    3    7 1
   8    4    5 1
   9    4   10 1
  10    5    6 1
  11    5   30 1
  12    5   31 1
  13    6   32 1
  14    6   33 1
  15    7    8 1
  16    7   11 1
  17    7   34 1
  18    8    9 1
  19    8   35 1
  20    8   36 1
  21    9   10 1
  22    9   37 1
  23    9   38 1
  24   10   39 1
  25   10   40 1
  26   11   12 ar
  27   11   16 ar
  28   12   13 ar
  29   12   41 1
  30   13   14 ar
  31   13   42 1
  32   14   15 ar
  33   14   17 1
  34   15   16 ar
  35   15   43 1
  36   16   44 1
  37   17   18 1
  38   18   19 ar
  39   18   23 ar
  40   19   20 ar
  41   19   45 1
  42   20   21 ar
  43   20   24 1
  44   21   22 ar
  45   21   46 1
  46   22   23 ar
  47   22   47 1
  48   24   25 1
  49   24   26 1
  50   24   27 1

#	End of record

