#	Name: ASD09530036
#	Creating user name:	WinNT
#	Creation time:	15. 06. 2019 21:22

#	Modifying user name:	WinNT
#	Modification time:	15. 06. 2019 21:22

#	Program:	/corina/corina34_cracker 3.40 0067  02.08.2006

@<TRIPOS>MOLECULE
ASD09530036
  54   57    0    0    0
SMALL
NO_CHARGES


@<TRIPOS>ATOM
   1 C1            -0.0168     1.3849     0.0097 C.ar    
   2 C2             0.0021    -0.0041     0.0020 C.ar    
   3 C3             1.2161    -0.6791    -0.0132 C.ar    
   4 C4             2.3998     0.0322    -0.0207 C.ar    
   5 C5             2.3775     1.4149    -0.0126 C.ar    
   6 C6             1.1706     2.0901     0.0021 C.ar    
   7 C7             3.6712     2.1878    -0.0203 C.3     
   8 C8             4.0891     2.4535    -1.4436 C.2     
   9 N9             5.2244     3.1344    -1.6966 N.am    
  10 O10            3.4039     2.0546    -2.3613 O.2     
  11 C11            5.6306     3.3928    -3.0802 C.3     
  12 C12            6.5083     4.6170    -3.1259 C.ar    
  13 N13            7.1870     4.9710    -2.0524 N.ar    
  14 C14            7.9677     6.0334    -2.0435 C.ar    
  15 C15            8.1020     6.8226    -3.1762 C.ar    
  16 C16            7.3999     6.4779    -4.3270 C.ar    
  17 C17            6.5953     5.3506    -4.2945 C.ar    
  18 O18            8.9076     7.9171    -3.1622 O.3     
  19 C19            9.5931     8.2024    -1.9413 C.3     
  20 C20           10.4447     9.4613    -2.1167 C.3     
  21 C21            6.4068     2.1885    -3.6172 C.3     
  22 F22            9.6191    10.5401    -2.4510 F       
  23 F23           11.1159     9.7407    -0.9214 F       
  24 F24           11.3780     9.2544    -3.1382 F       
  25 N25           -1.1992    -0.7217     0.0101 N.am    
  26 C26           -1.3250    -2.0641     0.0041 C.2     
  27 N27           -2.6409    -2.3571     0.0156 N.am    
  28 C28           -3.3483    -1.1694     0.0290 C.2     
  29 N29           -2.4898    -0.1754     0.0320 N.2     
  30 C30           -3.3125    -3.5564     0.0154 C.2     
  31 C31           -4.6567    -3.5900     0.0278 C.2     
  32 C32           -5.4042    -2.3948     0.0416 C.2     
  33 C33           -4.7653    -1.1993     0.0433 C.2     
  34 O34           -0.4110    -2.8700    -0.0099 O.2     
  35 H35           -0.9590     1.9127     0.0170 H       
  36 H36            1.2342    -1.7589    -0.0188 H       
  37 H37            3.3440    -0.4920    -0.0325 H       
  38 H38            1.1567     3.1699     0.0084 H       
  39 H39            3.5315     3.1352     0.5003 H       
  40 H40            4.4443     1.6072     0.4830 H       
  41 H41            5.7724     3.4535    -0.9626 H       
  42 H42            4.7452     3.5574    -3.6942 H       
  43 H43            8.5079     6.2921    -1.1448 H       
  44 H44            7.4835     7.0722    -5.2249 H       
  45 H45            6.0360     5.0531    -5.1692 H       
  46 H46            8.8660     8.3637    -1.1454 H       
  47 H47           10.2364     7.3620    -1.6808 H       
  48 H48            6.7091     2.3807    -4.6466 H       
  49 H49            7.2922     2.0238    -3.0032 H       
  50 H50            5.7720     1.3030    -3.5842 H       
  51 H51           -2.7548    -4.4812     0.0049 H       
  52 H52           -5.1683    -4.5412     0.0267 H       
  53 H53           -6.4836    -2.4316     0.0511 H       
  54 H54           -5.3302    -0.2789     0.0541 H       
@<TRIPOS>BOND
   1    1    2 ar
   2    1    6 ar
   3    1   35 1
   4    2    3 ar
   5    2   25 1
   6    3    4 ar
   7    3   36 1
   8    4    5 ar
   9    4   37 1
  10    5    6 ar
  11    5    7 1
  12    6   38 1
  13    7    8 1
  14    7   39 1
  15    7   40 1
  16    8    9 am
  17    8   10 2
  18    9   11 1
  19    9   41 1
  20   11   12 1
  21   11   21 1
  22   11   42 1
  23   12   13 ar
  24   12   17 ar
  25   13   14 ar
  26   14   15 ar
  27   14   43 1
  28   15   16 ar
  29   15   18 1
  30   16   17 ar
  31   16   44 1
  32   17   45 1
  33   18   19 1
  34   19   20 1
  35   19   46 1
  36   19   47 1
  37   20   22 1
  38   20   23 1
  39   20   24 1
  40   21   48 1
  41   21   49 1
  42   21   50 1
  43   25   26 am
  44   25   29 1
  45   26   27 am
  46   26   34 2
  47   27   28 1
  48   27   30 1
  49   28   29 2
  50   28   33 1
  51   30   31 2
  52   30   51 1
  53   31   32 1
  54   31   52 1
  55   32   33 2
  56   32   53 1
  57   33   54 1

#	End of record

