#	Name: ASD06170206
#	Creating user name:	WinNT
#	Creation time:	15. 06. 2019 21:05

#	Modifying user name:	WinNT
#	Modification time:	15. 06. 2019 21:05

#	Program:	/corina/corina34_cracker 3.40 0067  02.08.2006

@<TRIPOS>MOLECULE
ASD06170206
  71   75    0    0    0
SMALL
NO_CHARGES


@<TRIPOS>ATOM
   1 C1            -0.0246     1.3101     0.1438 C.2     
   2 C2            -0.0839    -0.0506    -0.2394 C.2     
   3 C3             1.1083    -0.7032    -0.6010 C.2     
   4 C4             2.3135     0.0224    -0.5675 C.2     
   5 C5             2.3099     1.3205    -0.1932 C.2     
   6 N6             1.1580     1.9528     0.1567 N.am    
   7 C7            -1.3630    -0.7663    -0.2588 C.2     
   8 O8            -1.4193    -1.9003    -0.6972 O.2     
   9 N9            -2.4768    -0.1686     0.2089 N.am    
  10 C10            1.2029     3.2996     0.5380 C.ar    
  11 C11            0.5901     4.2662    -0.2484 C.ar    
  12 C12            0.6362     5.5936     0.1303 C.ar    
  13 C13            1.2918     5.9605     1.2913 C.ar    
  14 C14            1.9031     5.0003     2.0765 C.ar    
  15 C15            1.8555     3.6706     1.7062 C.ar    
  16 O16           -1.0439     1.9010     0.4571 O.2     
  17 N17            1.0965    -2.0254    -0.9795 N.pl3   
  18 C18            2.3231    -2.6573    -1.4720 C.3     
  19 C19            2.0385    -4.1193    -1.8220 C.3     
  20 O20            1.1186    -4.1774    -2.9140 O.3     
  21 C21            0.7841    -5.5053    -3.3221 C.3     
  22 C22           -3.6672    -0.8892     0.3047 C.ar    
  23 C23           -3.6322    -2.2792     0.2949 C.ar    
  24 C24           -4.8184    -2.9839     0.3908 C.ar    
  25 C25           -6.0089    -2.2682     0.4941 C.ar    
  26 C26           -5.9669    -0.8832     0.4974 C.ar    
  27 N27           -4.8169    -0.2426     0.4093 N.ar    
  28 O28           -7.1978    -2.9208     0.5901 O.3     
  29 N29           -7.9368    -5.0576     4.0395 N.ar    
  30 C30           -6.8545    -4.3224     3.9376 C.ar    
  31 C31           -6.5720    -3.5895     2.7920 C.ar    
  32 C32           -7.4473    -3.6262     1.7208 C.ar    
  33 C33           -8.6093    -4.4211     1.8417 C.ar    
  34 C34           -9.5429    -4.5087     0.7982 C.ar    
  35 C35          -10.6541    -5.2867     0.9495 C.ar    
  36 C36          -10.8717    -5.9992     2.1374 C.ar    
  37 C37           -9.9794    -5.9316     3.1683 C.ar    
  38 C38           -8.8263    -5.1394     3.0428 C.ar    
  39 O39          -11.9859    -6.7667     2.2643 O.3     
  40 C40          -12.1528    -7.4690     3.4976 C.3     
  41 O41          -11.5593    -5.3714    -0.0617 O.3     
  42 C42          -11.2811    -4.6217    -1.2460 C.3     
  43 H43            3.2412    -0.4584    -0.8407 H       
  44 H44            3.2411     1.8671    -0.1710 H       
  45 H45           -2.4505     0.7626     0.4790 H       
  46 H46            0.0782     3.9804    -1.1554 H       
  47 H47            0.1601     6.3459    -0.4811 H       
  48 H48            1.3268     6.9991     1.5851 H       
  49 H49            2.4146     5.2900     2.9825 H       
  50 H50            2.3293     2.9206     2.3223 H       
  51 H51            0.2761    -2.5395    -0.9205 H       
  52 H52            2.6706    -2.1318    -2.3615 H       
  53 H53            3.0908    -2.6114    -0.6997 H       
  54 H54            2.9685    -4.6131    -2.1037 H       
  55 H55            1.6075    -4.6228    -0.9566 H       
  56 H56            1.6880    -6.0279    -3.6350 H       
  57 H57            0.3270    -6.0376    -2.4879 H       
  58 H58            0.0820    -5.4635    -4.1548 H       
  59 H59           -2.6907    -2.8020     0.2130 H       
  60 H60           -4.8216    -4.0639     0.3854 H       
  61 H61           -6.8860    -0.3216     0.5772 H       
  62 H62           -6.1645    -4.2860     4.7677 H       
  63 H63           -5.6732    -2.9931     2.7376 H       
  64 H64           -9.3833    -3.9630    -0.1201 H       
  65 H65          -10.1597    -6.4853     4.0779 H       
  66 H66          -11.3120    -8.1464     3.6467 H       
  67 H67          -12.1941    -6.7546     4.3198 H       
  68 H68          -13.0797    -8.0417     3.4670 H       
  69 H69          -12.0801    -4.7776    -1.9708 H       
  70 H70          -11.2167    -3.5621    -0.9985 H       
  71 H71          -10.3343    -4.9535    -1.6720 H       
@<TRIPOS>BOND
   1    1    2 1
   2    1    6 am
   3    1   16 2
   4    2    3 2
   5    2    7 1
   6    3    4 1
   7    3   17 1
   8    4    5 2
   9    4   43 1
  10    5    6 1
  11    5   44 1
  12    6   10 1
  13    7    8 2
  14    7    9 am
  15    9   22 1
  16    9   45 1
  17   10   11 ar
  18   10   15 ar
  19   11   12 ar
  20   11   46 1
  21   12   13 ar
  22   12   47 1
  23   13   14 ar
  24   13   48 1
  25   14   15 ar
  26   14   49 1
  27   15   50 1
  28   17   18 1
  29   17   51 1
  30   18   19 1
  31   18   52 1
  32   18   53 1
  33   19   20 1
  34   19   54 1
  35   19   55 1
  36   20   21 1
  37   21   56 1
  38   21   57 1
  39   21   58 1
  40   22   23 ar
  41   22   27 ar
  42   23   24 ar
  43   23   59 1
  44   24   25 ar
  45   24   60 1
  46   25   26 ar
  47   25   28 1
  48   26   27 ar
  49   26   61 1
  50   28   32 1
  51   29   30 ar
  52   29   38 ar
  53   30   31 ar
  54   30   62 1
  55   31   32 ar
  56   31   63 1
  57   32   33 ar
  58   33   34 ar
  59   33   38 ar
  60   34   35 ar
  61   34   64 1
  62   35   36 ar
  63   35   41 1
  64   36   37 ar
  65   36   39 1
  66   37   38 ar
  67   37   65 1
  68   39   40 1
  69   40   66 1
  70   40   67 1
  71   40   68 1
  72   41   42 1
  73   42   69 1
  74   42   70 1
  75   42   71 1

#	End of record

