#	Name: ASD01148735
#	Creating user name:	WinNT
#	Creation time:	15. 06. 2019 19:03

#	Modifying user name:	WinNT
#	Modification time:	15. 06. 2019 19:03

#	Program:	/corina/corina34_cracker 3.40 0067  02.08.2006

@<TRIPOS>MOLECULE
ASD01148735
  54   57    0    0    0
SMALL
NO_CHARGES


@<TRIPOS>ATOM
   1 C1            -0.3343     0.7615     0.2607 C.ar    
   2 C2            -0.1694    -0.6081     0.3569 C.ar    
   3 C3             1.0962    -1.1583     0.3005 C.ar    
   4 C4             2.2035    -0.3348     0.1471 C.ar    
   5 C5             2.0346     1.0401     0.0508 C.ar    
   6 C6             0.7665     1.5843     0.1079 C.ar    
   7 S7            -1.9511     1.4590     0.3258 S.o2    
   8 O8            -1.8713     2.7184    -0.3275 O.2     
   9 O9            -2.8477     0.4316    -0.0738 O.2     
  10 N10           -2.2839     1.7775     1.9164 N.am    
  11 N11            3.4886    -0.8898     0.0899 N.pl3   
  12 C12            3.9688    -1.6474    -0.9187 C.2     
  13 C13            5.2664    -2.0033    -0.6111 C.2     
  14 C14            5.5676    -1.4230     0.6490 C.2     
  15 C15            4.4628    -0.7440     1.0502 C.2     
  16 C16            3.2177    -2.0375    -2.1656 C.3     
  17 C17            6.1669    -2.8284    -1.4334 C.2     
  18 C18            7.5651    -3.0383    -1.0122 C.ar    
  19 C19            7.8603    -3.9191     0.0380 C.ar    
  20 C20            9.1774    -4.1100     0.4260 C.ar    
  21 C21           10.1948    -3.4350    -0.2197 C.ar    
  22 C22            9.9083    -2.5625    -1.2592 C.ar    
  23 C23            8.6031    -2.3650    -1.6616 C.ar    
  24 O24            5.7579    -3.3370    -2.4602 O.2     
  25 O25            6.8605    -4.5819     0.6725 O.3     
  26 C26            7.2368    -5.4627     1.7330 C.3     
  27 F27           10.9114    -1.9074    -1.8837 F       
  28 C28            4.3280     0.0205     2.3089 C.ar    
  29 C29            3.0625     0.3021     2.8254 C.ar    
  30 C30            2.9430     1.0152     4.0001 C.ar    
  31 C31            4.0756     1.4518     4.6665 C.ar    
  32 C32            5.3339     1.1753     4.1589 C.ar    
  33 C33            5.4660     0.4581     2.9880 C.ar    
  34 Cl34           3.9174     2.3496     6.1438 Cl      
  35 H35           -1.0310    -1.2481     0.4766 H       
  36 H36            1.2244    -2.2280     0.3760 H       
  37 H37            2.8940     1.6833    -0.0683 H       
  38 H38            0.6345     2.6536     0.0331 H       
  39 H39           -1.6267     1.5728     2.5998 H       
  40 H40           -3.1360     2.1689     2.1647 H       
  41 H41            6.5013    -1.5036     1.1857 H       
  42 H42            3.3804    -1.2857    -2.9379 H       
  43 H43            3.5766    -3.0044    -2.5184 H       
  44 H44            2.1529    -2.1045    -1.9424 H       
  45 H45            9.4083    -4.7874     1.2348 H       
  46 H46           11.2191    -3.5871     0.0869 H       
  47 H47            8.3839    -1.6883    -2.4743 H       
  48 H48            6.3448    -5.9272     2.1533 H       
  49 H49            7.9005    -6.2355     1.3452 H       
  50 H50            7.7521    -4.8971     2.5093 H       
  51 H51            2.1785    -0.0373     2.3061 H       
  52 H52            1.9642     1.2338     4.4007 H       
  53 H53            6.2137     1.5187     4.6828 H       
  54 H54            6.4480     0.2395     2.5952 H       
@<TRIPOS>BOND
   1    1    2 ar
   2    1    6 ar
   3    1    7 1
   4    2    3 ar
   5    2   35 1
   6    3    4 ar
   7    3   36 1
   8    4    5 ar
   9    4   11 1
  10    5    6 ar
  11    5   37 1
  12    6   38 1
  13    7    8 2
  14    7    9 2
  15    7   10 am
  16   10   39 1
  17   10   40 1
  18   11   12 1
  19   11   15 1
  20   12   13 2
  21   12   16 1
  22   13   14 1
  23   13   17 1
  24   14   15 2
  25   14   41 1
  26   15   28 1
  27   16   42 1
  28   16   43 1
  29   16   44 1
  30   17   18 1
  31   17   24 2
  32   18   19 ar
  33   18   23 ar
  34   19   20 ar
  35   19   25 1
  36   20   21 ar
  37   20   45 1
  38   21   22 ar
  39   21   46 1
  40   22   23 ar
  41   22   27 1
  42   23   47 1
  43   25   26 1
  44   26   48 1
  45   26   49 1
  46   26   50 1
  47   28   29 ar
  48   28   33 ar
  49   29   30 ar
  50   29   51 1
  51   30   31 ar
  52   30   52 1
  53   31   32 ar
  54   31   34 1
  55   32   33 ar
  56   32   53 1
  57   33   54 1

#	End of record

