#	Name: ASD05120001
#	Creating user name:	WinNT
#	Creation time:	15. 06. 2019 20:56

#	Modifying user name:	WinNT
#	Modification time:	15. 06. 2019 20:56

#	Program:	/corina/corina34_cracker 3.40 0067  02.08.2006

@<TRIPOS>MOLECULE
ASD05120001
  88   93    0    0    0
SMALL
NO_CHARGES


@<TRIPOS>ATOM
   1 C1             1.0666    -0.6255    -1.9463 C.3     
   2 O2             1.0867    -2.0543    -1.9538 O.3     
   3 C3             1.7107    -2.6675    -0.9154 C.ar    
   4 C4             2.2901    -1.9137     0.0872 C.ar    
   5 C5             2.9306    -2.5460     1.1529 C.ar    
   6 C6             2.9881    -3.9405     1.2088 C.ar    
   7 C7             2.4136    -4.6964     0.2136 C.ar    
   8 C8             1.7638    -4.0696    -0.8548 C.ar    
   9 N9             1.1936    -4.8181    -1.8417 N.2     
  10 N10            1.2532    -6.1057    -1.7907 N.2     
  11 C11            0.6836    -6.8534    -2.7764 C.ar    
  12 C12            0.0309    -6.2176    -3.8492 C.ar    
  13 C13           -0.5434    -6.9415    -4.8421 C.ar    
  14 C14           -0.4942    -8.3491    -4.8130 C.ar    
  15 C15            0.1589    -9.0072    -3.7414 C.ar    
  16 C16            0.7551    -8.2465    -2.7208 C.ar    
  17 O17            1.3845    -8.8594    -1.6883 O.3     
  18 C18            0.2034   -10.4178    -3.7193 C.ar    
  19 N19            0.8392   -11.0838    -2.6761 N.pl3   
  20 C20           -0.3898   -11.1305    -4.7417 C.ar    
  21 C21           -1.0275   -10.4729    -5.7877 C.ar    
  22 C22           -1.0848    -9.1119    -5.8330 C.ar    
  23 S23           -1.9006    -8.3092    -7.1726 S.o2    
  24 O24           -3.2834    -8.2887    -6.8460 O.2     
  25 O25           -1.1510    -7.1351    -7.4534 O.2     
  26 O26           -1.7601    -9.2105    -8.3909 O.3     
  27 S27           -0.3378   -12.8916    -4.7214 S.o2    
  28 O28            0.7589   -13.2701    -5.5419 O.2     
  29 O29           -0.4611   -13.2810    -3.3604 O.2     
  30 O30           -1.5927   -13.3875    -5.4257 O.3     
  31 C31            3.5514    -1.7370     2.2271 C.ar    
  32 C32            3.4942    -0.3425     2.1709 C.ar    
  33 C33            4.0691     0.4135     3.1659 C.ar    
  34 C34            4.7131    -0.2135     4.2377 C.ar    
  35 C35            4.7712    -1.6154     4.2953 C.ar    
  36 C36            4.1869    -2.3693     3.2957 C.ar    
  37 O37            5.3957    -2.2287     5.3335 O.3     
  38 C38            5.4158    -3.6575     5.3260 C.3     
  39 N39            5.2837     0.5351     5.2243 N.2     
  40 N40            5.2299     1.8228     5.1698 N.2     
  41 C41            5.7999     2.5705     6.1553 C.ar    
  42 C42            6.4467     1.9346     7.2317 C.ar    
  43 C43            7.0213     2.6586     8.2243 C.ar    
  44 C44            6.9783     4.0662     8.1915 C.ar    
  45 C45            6.3320     4.7244     7.1159 C.ar    
  46 C46            5.7447     3.9639     6.0901 C.ar    
  47 O47            5.1227     4.5770     5.0531 O.3     
  48 C48            6.2928     6.1351     7.0906 C.ar    
  49 N49            5.6630     6.8013     6.0439 N.pl3   
  50 C50            6.8846     6.8478     8.1139 C.ar    
  51 C51            7.5157     6.1901     9.1639 C.ar    
  52 C52            7.5677     4.8290     9.2122 C.ar    
  53 S53            8.3752     4.0262    10.5568 S.o2    
  54 O54            7.4266     3.9598    11.6127 O.2     
  55 O55            9.0151     2.8795    10.0136 O.2     
  56 O56            9.4850     4.9522    11.0336 O.3     
  57 S57            6.8403     8.6091     8.0890 S.o2    
  58 O58            8.0745     9.0336     7.5272 O.2     
  59 O59            5.5760     8.9711     7.5508 O.2     
  60 O60            6.8422     9.0803     9.5362 O.3     
  61 H61            2.0890    -0.2477    -1.9547 H       
  62 H62            0.5388    -0.2649    -2.8292 H       
  63 H63            0.5567    -0.2739    -1.0494 H       
  64 H64            2.2474    -0.8354     0.0455 H       
  65 H65            3.4852    -4.4263     2.0354 H       
  66 H66            2.4604    -5.7744     0.2594 H       
  67 H67           -0.0135    -5.1390    -3.8821 H       
  68 H68           -1.0404    -6.4372    -5.6575 H       
  69 H69            2.3251    -9.0229    -1.8422 H       
  70 H70            0.8635   -10.6876    -1.7911 H       
  71 H71            1.2581   -11.9444    -2.8339 H       
  72 H72           -1.4849   -11.0501    -6.5777 H       
  73 H73           -2.1773    -8.8600    -9.1898 H       
  74 H74           -1.6640   -14.3508    -5.4703 H       
  75 H75            2.9977     0.1434     1.3439 H       
  76 H76            4.0235     1.4915     3.1194 H       
  77 H77            4.2296    -3.4477     3.3373 H       
  78 H78            4.3934    -4.0353     5.3348 H       
  79 H79            5.9253    -4.0090     4.4289 H       
  80 H80            5.9439    -4.0181     6.2087 H       
  81 H81            6.4857     0.8559     7.2678 H       
  82 H82            7.5131     2.1541     9.0428 H       
  83 H83            5.7037     4.7705     4.3048 H       
  84 H84            4.9098     6.3907     5.5911 H       
  85 H85            5.9771     7.6763     5.7671 H       
  86 H86            7.9727     6.7674     9.9540 H       
  87 H87            9.9960     4.6035    11.7768 H       
  88 H88            6.8191    10.0418     9.6369 H       
@<TRIPOS>BOND
   1    1    2 1
   2    1   61 1
   3    1   62 1
   4    1   63 1
   5    2    3 1
   6    3    4 ar
   7    3    8 ar
   8    4    5 ar
   9    4   64 1
  10    5    6 ar
  11    5   31 1
  12    6    7 ar
  13    6   65 1
  14    7    8 ar
  15    7   66 1
  16    8    9 1
  17    9   10 2
  18   10   11 1
  19   11   12 ar
  20   11   16 ar
  21   12   13 ar
  22   12   67 1
  23   13   14 ar
  24   13   68 1
  25   14   15 ar
  26   14   22 ar
  27   15   16 ar
  28   15   18 ar
  29   16   17 1
  30   17   69 1
  31   18   19 1
  32   18   20 ar
  33   19   70 1
  34   19   71 1
  35   20   21 ar
  36   20   27 1
  37   21   22 ar
  38   21   72 1
  39   22   23 1
  40   23   24 2
  41   23   25 2
  42   23   26 1
  43   26   73 1
  44   27   28 2
  45   27   29 2
  46   27   30 1
  47   30   74 1
  48   31   32 ar
  49   31   36 ar
  50   32   33 ar
  51   32   75 1
  52   33   34 ar
  53   33   76 1
  54   34   35 ar
  55   34   39 1
  56   35   36 ar
  57   35   37 1
  58   36   77 1
  59   37   38 1
  60   38   78 1
  61   38   79 1
  62   38   80 1
  63   39   40 2
  64   40   41 1
  65   41   42 ar
  66   41   46 ar
  67   42   43 ar
  68   42   81 1
  69   43   44 ar
  70   43   82 1
  71   44   45 ar
  72   44   52 ar
  73   45   46 ar
  74   45   48 ar
  75   46   47 1
  76   47   83 1
  77   48   49 1
  78   48   50 ar
  79   49   84 1
  80   49   85 1
  81   50   51 ar
  82   50   57 1
  83   51   52 ar
  84   51   86 1
  85   52   53 1
  86   53   54 2
  87   53   55 2
  88   53   56 1
  89   56   87 1
  90   57   58 2
  91   57   59 2
  92   57   60 1
  93   60   88 1

#	End of record

