#	Name: ASD01940493
#	Creating user name:	WinNT
#	Creation time:	15. 06. 2019 20:12

#	Modifying user name:	WinNT
#	Modification time:	15. 06. 2019 20:12

#	Program:	/corina/corina34_cracker 3.40 0067  02.08.2006

@<TRIPOS>MOLECULE
ASD01940493
  37   38    0    0    0
SMALL
NO_CHARGES


@<TRIPOS>ATOM
   1 N1             0.1482     1.1945    -0.2022 N.pl3   
   2 C2            -0.2174     1.6269     1.0770 C.ar    
   3 C3            -1.5534     1.6056     1.4648 C.ar    
   4 C4            -1.9105     2.0338     2.7298 C.ar    
   5 C5            -0.9406     2.4828     3.6087 C.ar    
   6 C6             0.3878     2.5051     3.2250 C.ar    
   7 C7             0.7525     2.0727     1.9642 C.ar    
   8 I8            -1.4859     3.1308     5.5249 I       
   9 F9            -2.5002     1.1676     0.6064 F       
  10 C10            1.4678     1.3383    -0.6375 C.ar    
  11 C11            1.9179     2.5687    -1.0994 C.ar    
  12 C12            3.2251     2.7074    -1.5290 C.ar    
  13 C13            4.0839     1.6207    -1.4987 C.ar    
  14 C14            3.6369     0.3957    -1.0397 C.ar    
  15 C15            2.3340     0.2527    -0.6039 C.ar    
  16 N16            1.8591    -1.0583    -0.1070 N.pl3   
  17 O17            2.6400    -1.9864     0.0048 O.2     
  18 O18            0.6875    -1.2090     0.1899 O.2     
  19 F19            3.6647     3.9030    -1.9790 F       
  20 C20            0.9832     3.7503    -1.1326 C.3     
  21 O21            1.4386     4.6906    -2.1075 O.3     
  22 C22            0.6783     5.8998    -2.1483 C.3     
  23 O23           -0.3317     3.3079    -1.4753 O.3     
  24 C24           -0.3908     2.5369    -2.6770 C.3     
  25 H25           -0.5136     0.7911    -0.7854 H       
  26 H26           -2.9472     2.0182     3.0321 H       
  27 H27            1.1420     2.8565     3.9136 H       
  28 H28            1.7910     2.0859     1.6678 H       
  29 H29            5.1044     1.7306    -1.8346 H       
  30 H30            4.3087    -0.4496    -1.0176 H       
  31 H31            0.9627     4.2250    -0.1517 H       
  32 H32            1.0378     6.5277    -2.9635 H       
  33 H33           -0.3734     5.6625    -2.3091 H       
  34 H34            0.7904     6.4316    -1.2035 H       
  35 H35           -1.4315     2.3244    -2.9215 H       
  36 H36            0.0665     3.0983    -3.4918 H       
  37 H37            0.1476     1.5999    -2.5344 H       
@<TRIPOS>BOND
   1    1    2 1
   2    1   10 1
   3    1   25 1
   4    2    3 ar
   5    2    7 ar
   6    3    4 ar
   7    3    9 1
   8    4    5 ar
   9    4   26 1
  10    5    6 ar
  11    5    8 1
  12    6    7 ar
  13    6   27 1
  14    7   28 1
  15   10   11 ar
  16   10   15 ar
  17   11   12 ar
  18   11   20 1
  19   12   13 ar
  20   12   19 1
  21   13   14 ar
  22   13   29 1
  23   14   15 ar
  24   14   30 1
  25   15   16 1
  26   16   17 2
  27   16   18 2
  28   20   21 1
  29   20   23 1
  30   20   31 1
  31   21   22 1
  32   22   32 1
  33   22   33 1
  34   22   34 1
  35   23   24 1
  36   24   35 1
  37   24   36 1
  38   24   37 1

#	End of record

