#	Name: ASD00060056
#	Creating user name:	WinNT
#	Creation time:	15. 06. 2019 18:29

#	Modifying user name:	WinNT
#	Modification time:	15. 06. 2019 18:29

#	Program:	/corina/corina34_cracker 3.40 0067  02.08.2006

@<TRIPOS>MOLECULE
ASD00060056
  38   39    0    0    0
SMALL
NO_CHARGES


@<TRIPOS>ATOM
   1 C1            -0.3658     0.5973     1.5515 C.ar    
   2 C2            -0.7470     0.4265    -0.8271 C.ar    
   3 C3            -1.9241     1.1311    -0.6822 C.ar    
   4 C4            -2.3182     1.5766     0.5681 C.ar    
   5 C5            -1.5423     1.3055     1.6824 C.ar    
   6 C6             1.4098    -1.6379     0.8535 C.2     
   7 C7            -0.6428    -3.2522     4.5837 C.ar    
   8 C8            -1.6594    -3.7654     5.3673 C.ar    
   9 S9             2.9674    -2.4588     0.7841 S.3     
  10 C10            0.0423     0.1541     0.2919 C.ar    
  11 N11            0.3982    -2.1441     1.6422 N.am    
  12 C12            3.8454    -1.3702    -0.3650 C.3     
  13 N13            1.2124    -0.5447     0.1546 N.2     
  14 Cl14          -3.8009     2.4626     0.7422 Cl      
  15 C15            0.6338    -3.2015     2.4440 C.2     
  16 O16            1.7381    -3.7090     2.4719 O.2     
  17 C17           -0.4485    -3.7431     3.2879 C.ar    
  18 C18           -1.2852    -4.7499     2.7974 C.ar    
  19 Cl19          -1.0541    -5.3678     1.1916 Cl      
  20 C20           -2.2955    -5.2519     3.5933 C.ar    
  21 C21           -2.4818    -4.7616     4.8736 C.ar    
  22 F22            0.1567    -2.2755     5.0653 F       
  23 H23            0.2407     0.3900     2.4208 H       
  24 H24           -0.4368     0.0860    -1.8039 H       
  25 H25           -2.5353     1.3428    -1.5470 H       
  26 H26           -1.8591     1.6489     2.6561 H       
  27 H27           -1.8110    -3.3883     6.3679 H       
  28 H28           -0.4829    -1.7391     1.6200 H       
  29 H29            3.3156    -1.3440    -1.3172 H       
  30 H30            3.8930    -0.3643     0.0521 H       
  31 H31           -2.9427    -6.0294     3.2152 H       
  32 H32           -3.2743    -5.1586     5.4906 H       
  33 C33            5.2428    -1.8909    -0.5817 C.2     
  34 C34            6.1852    -1.1593    -1.5024 C.3     
  35 O35            5.6076    -2.8944    -0.0175 O.2     
  36 H36            6.7457    -0.4172    -0.9339 H       
  37 H37            6.8774    -1.8702    -1.9536 H       
  38 H38            5.6140    -0.6612    -2.2859 H       
@<TRIPOS>BOND
   1    1   10 ar
   2    1   23 1
   3    1    5 ar
   4    2   24 1
   5    2    3 ar
   6    2   10 ar
   7    3   25 1
   8    3    4 ar
   9    4    5 ar
  10    4   14 1
  11    5   26 1
  12    6    9 1
  13    6   11 1
  14    6   13 2
  15    7   17 ar
  16    7    8 ar
  17    7   22 1
  18    8   21 ar
  19    8   27 1
  20    9   12 1
  21   10   13 1
  22   11   15 am
  23   11   28 1
  24   12   29 1
  25   12   30 1
  26   12   33 1
  27   15   16 2
  28   15   17 1
  29   17   18 ar
  30   18   19 1
  31   18   20 ar
  32   20   31 1
  33   20   21 ar
  34   21   32 1
  35   33   34 1
  36   33   35 2
  37   34   36 1
  38   34   37 1
  39   34   38 1

#	End of record

