#	Name: ASD01915977
#	Creating user name:	WinNT
#	Creation time:	15. 06. 2019 20:06

#	Modifying user name:	WinNT
#	Modification time:	15. 06. 2019 20:06

#	Program:	/corina/corina34_cracker 3.40 0067  02.08.2006

@<TRIPOS>MOLECULE
ASD01915977
  48   50    0    0    0
SMALL
NO_CHARGES


@<TRIPOS>ATOM
   1 C1            -0.3420     1.4546    -0.7081 C.2     
   2 C2            -0.3526     0.1055    -1.0069 C.2     
   3 C3            -1.6681    -0.6560    -1.0195 C.3     
   4 C4            -2.6242    -0.0026    -0.0234 C.3     
   5 N5            -2.6793     1.4474    -0.1672 N.am    
   6 C6            -1.5660     2.1872    -0.3784 C.2     
   7 O7            -1.5814     3.4018    -0.2977 O.2     
   8 S8             1.3083     2.0311    -0.7920 S.3     
   9 C9             1.8454     0.4595    -1.2027 C.2     
  10 N10            0.8418    -0.3663    -1.2581 N.2     
  11 C11            4.1068     1.1642    -1.3311 C.3     
  12 C12            5.4753     0.6056    -1.6246 C.ar    
  13 C13            5.9575     0.6037    -2.9200 C.ar    
  14 C14            6.2501     0.1004    -0.5975 C.ar    
  15 C15            7.5074    -0.4123    -0.8673 C.ar    
  16 C16            7.2130     0.0915    -3.1908 C.ar    
  17 O17            3.1343     0.1226    -1.4377 O.3     
  18 C18           -3.9766     2.1224    -0.0811 C.3     
  19 C19            7.9874    -0.4184    -2.1663 C.ar    
  20 C20           -4.9507     1.4836    -1.0731 C.3     
  21 C21           -4.5304     1.9838     1.3385 C.3     
  22 F22            8.2658    -0.9058     0.1359 F       
  23 C23           -3.4864     2.4750     2.3433 C.3     
  24 C24           -5.8027     2.8227     1.4737 C.3     
  25 C25           -4.8557     0.5152     1.6179 C.3     
  26 H26           -2.1013    -0.6204    -2.0190 H       
  27 H27           -1.4930    -1.6926    -0.7316 H       
  28 H28           -3.6237    -0.4098    -0.1757 H       
  29 H29           -2.2980    -0.2441     0.9882 H       
  30 H30            4.0907     1.5745    -0.3214 H       
  31 H31            3.8749     1.9525    -2.0473 H       
  32 H32            5.3531     1.0024    -3.7213 H       
  33 H33            5.8749     0.1061     0.4152 H       
  34 H34            7.5886     0.0903    -4.2033 H       
  35 H35           -3.8535     3.1783    -0.3216 H       
  36 H36            8.9682    -0.8178    -2.3779 H       
  37 H37           -5.9160     1.9858    -1.0090 H       
  38 H38           -4.5562     1.5823    -2.0844 H       
  39 H39           -5.0739     0.4276    -0.8326 H       
  40 H40           -3.2546     3.5213     2.1443 H       
  41 H41           -3.8809     2.3763     3.3546 H       
  42 H42           -2.5800     1.8774     2.2470 H       
  43 H43           -6.5464     2.4728     0.7579 H       
  44 H44           -6.1972     2.7240     2.4851 H       
  45 H45           -5.5709     3.8690     1.2747 H       
  46 H46           -3.9313    -0.0613     1.6538 H       
  47 H47           -5.3725     0.4331     2.5741 H       
  48 H48           -5.4951     0.1274     0.8249 H       
@<TRIPOS>BOND
   1    1    2 2
   2    1    8 1
   3    1    6 1
   4    2    3 1
   5    2   10 1
   6    3    4 1
   7    3   26 1
   8    3   27 1
   9    4    5 1
  10    4   28 1
  11    4   29 1
  12    5    6 am
  13    5   18 1
  14    6    7 2
  15    8    9 1
  16    9   10 2
  17    9   17 1
  18   11   12 1
  19   11   17 1
  20   11   30 1
  21   11   31 1
  22   12   13 ar
  23   12   14 ar
  24   13   16 ar
  25   13   32 1
  26   14   15 ar
  27   14   33 1
  28   15   19 ar
  29   15   22 1
  30   16   19 ar
  31   16   34 1
  32   18   20 1
  33   18   21 1
  34   18   35 1
  35   19   36 1
  36   20   37 1
  37   20   38 1
  38   20   39 1
  39   21   23 1
  40   21   24 1
  41   21   25 1
  42   23   40 1
  43   23   41 1
  44   23   42 1
  45   24   43 1
  46   24   44 1
  47   24   45 1
  48   25   46 1
  49   25   47 1
  50   25   48 1

#	End of record

