#	Name: ASD04882191
#	Creating user name:	WinNT
#	Creation time:	15. 06. 2019 20:54

#	Modifying user name:	WinNT
#	Modification time:	15. 06. 2019 20:54

#	Program:	/corina/corina34_cracker 3.40 0067  02.08.2006

@<TRIPOS>MOLECULE
ASD04882191
  79   83    0    0    0
SMALL
NO_CHARGES


@<TRIPOS>ATOM
   1 C1            -0.1619     1.4901     0.4536 C.ar    
   2 C2            -0.1422     0.0094     0.4884 C.2     
   3 N3            -1.1637    -0.6908    -0.0433 N.am    
   4 C4            -1.0913    -2.0877    -0.1181 C.ar    
   5 C5            -2.2496    -2.8568     0.0250 C.ar    
   6 C6            -2.1791    -4.2433    -0.0489 C.ar    
   7 C7            -0.9685    -4.8639    -0.2633 C.ar    
   8 C8             0.1937    -4.1008    -0.4068 C.ar    
   9 C9             0.1248    -2.7065    -0.3390 C.ar    
  10 N10           -3.4755    -2.2336     0.2423 N.3     
  11 C11           -3.5001    -1.5610     1.5487 C.3     
  12 C12           -4.5822    -3.1935     0.1265 C.3     
  13 C13           -5.9130    -2.4562     0.2927 C.3     
  14 N14           -5.9377    -1.7836     1.5990 N.3     
  15 C15           -4.8310    -0.8237     1.7149 C.3     
  16 C16           -7.1675    -1.1584     1.8170 C.ar    
  17 C17           -7.9520    -1.5253     2.9028 C.ar    
  18 C18           -7.6062    -0.1642     0.9514 C.ar    
  19 C19           -8.8225     0.4518     1.1698 C.ar    
  20 C20           -9.6037     0.0804     2.2491 C.ar    
  21 C21           -9.1677    -0.9050     3.1155 C.ar    
  22 C22            1.4906    -4.7660    -0.6354 C.2     
  23 N23            1.5551    -6.1104    -0.7060 N.am    
  24 O24            2.5011    -4.1014    -0.7601 O.2     
  25 O25            0.7952    -0.5741     0.9963 O.2     
  26 N26            3.7886   -10.4281    -1.2431 N.am    
  27 C27            0.8968     2.2081     1.0048 C.ar    
  28 C28           -7.4776    -2.5992     3.8477 C.3     
  29 C29            3.5202   -11.1301    -2.3575 C.2     
  30 C30            3.8671   -11.3034    -0.0676 C.3     
  31 C31            3.1869   -12.6241    -0.4910 C.3     
  32 C32            3.3773   -12.5991    -2.0253 C.3     
  33 C33            0.8643     3.5933     0.9643 C.ar    
  34 C34           -0.2262     4.2121     0.3738 C.ar    
  35 C35           -1.2445     3.4346    -0.1549 C.ar    
  36 N36           -1.1860     2.1218    -0.1075 N.ar    
  37 C37           -2.4323     4.1029    -0.7980 C.3     
  38 O38            3.4081   -10.6549    -3.4677 O.2     
  39 C39            2.8429    -6.7709    -0.9330 C.3     
  40 C40            2.6390    -8.2868    -0.9703 C.3     
  41 C41            3.9839    -8.9767    -1.2074 C.3     
  42 H42           -1.9490    -0.2275    -0.3742 H       
  43 H43           -3.0757    -4.8351     0.0624 H       
  44 H44           -0.9171    -5.9412    -0.3202 H       
  45 H45            1.0211    -2.1143    -0.4499 H       
  46 H46           -3.3934    -2.3017     2.3412 H       
  47 H47           -2.6790    -0.8464     1.6054 H       
  48 H48           -4.5499    -3.6692    -0.8537 H       
  49 H49           -4.4877    -3.9528     0.9028 H       
  50 H50           -6.0198    -1.7155    -0.4998 H       
  51 H51           -6.7342    -3.1708     0.2360 H       
  52 H52           -4.8633    -0.3480     2.6951 H       
  53 H53           -4.9255    -0.0644     0.9386 H       
  54 H54           -6.9964     0.1268     0.1089 H       
  55 H55           -9.1642     1.2248     0.4974 H       
  56 H56          -10.5543     0.5643     2.4180 H       
  57 H57           -9.7801    -1.1927     3.9572 H       
  58 H58            0.7490    -6.6406    -0.6065 H       
  59 H59            1.7310     1.6928     1.4576 H       
  60 H60           -6.8985    -2.1456     4.6520 H       
  61 H61           -8.3383    -3.1192     4.2682 H       
  62 H62           -6.8530    -3.3096     3.3061 H       
  63 H63            4.9084   -11.4841     0.1993 H       
  64 H64            3.3339   -10.8566     0.7716 H       
  65 H65            3.6927   -13.4826    -0.0491 H       
  66 H66            2.1288   -12.6194    -0.2292 H       
  67 H67            2.5048   -13.0201    -2.5250 H       
  68 H68            4.2788   -13.1433    -2.3068 H       
  69 H69            1.6703     4.1771     1.3837 H       
  70 H70           -0.2821     5.2896     0.3264 H       
  71 H71           -2.2361     4.2488    -1.8602 H       
  72 H72           -3.3140     3.4740    -0.6744 H       
  73 H73           -2.6060     5.0692    -0.3245 H       
  74 H74            3.2601    -6.4370    -1.8831 H       
  75 H75            3.5292    -6.5164    -0.1254 H       
  76 H76            2.2218    -8.6207    -0.0203 H       
  77 H77            1.9527    -8.5413    -1.7780 H       
  78 H78            4.6702    -8.7221    -0.3997 H       
  79 H79            4.4010    -8.6427    -2.1574 H       
@<TRIPOS>BOND
   1    1    2 1
   2    1   27 ar
   3    1   36 ar
   4    2    3 am
   5    2   25 2
   6    3    4 1
   7    3   42 1
   8    4    5 ar
   9    4    9 ar
  10    5    6 ar
  11    5   10 1
  12    6    7 ar
  13    6   43 1
  14    7    8 ar
  15    7   44 1
  16    8    9 ar
  17    8   22 1
  18    9   45 1
  19   10   11 1
  20   10   12 1
  21   11   15 1
  22   11   46 1
  23   11   47 1
  24   12   13 1
  25   12   48 1
  26   12   49 1
  27   13   14 1
  28   13   50 1
  29   13   51 1
  30   14   15 1
  31   14   16 1
  32   15   52 1
  33   15   53 1
  34   16   17 ar
  35   16   18 ar
  36   17   28 1
  37   17   21 ar
  38   18   19 ar
  39   18   54 1
  40   19   20 ar
  41   19   55 1
  42   20   21 ar
  43   20   56 1
  44   21   57 1
  45   22   23 am
  46   22   24 2
  47   23   39 1
  48   23   58 1
  49   26   29 am
  50   26   30 1
  51   26   41 1
  52   27   33 ar
  53   27   59 1
  54   28   60 1
  55   28   61 1
  56   28   62 1
  57   29   38 2
  58   29   32 1
  59   30   31 1
  60   30   63 1
  61   30   64 1
  62   31   32 1
  63   31   65 1
  64   31   66 1
  65   32   67 1
  66   32   68 1
  67   33   34 ar
  68   33   69 1
  69   34   35 ar
  70   34   70 1
  71   35   36 ar
  72   35   37 1
  73   37   71 1
  74   37   72 1
  75   37   73 1
  76   39   40 1
  77   39   74 1
  78   39   75 1
  79   40   41 1
  80   40   76 1
  81   40   77 1
  82   41   78 1
  83   41   79 1

#	End of record

