#	Name: ASD01140267
#	Creating user name:	WinNT
#	Creation time:	15. 06. 2019 19:00

#	Modifying user name:	WinNT
#	Modification time:	15. 06. 2019 19:00

#	Program:	/corina/corina34_cracker 3.40 0067  02.08.2006

@<TRIPOS>MOLECULE
ASD01140267
  83   90    0    0    0
SMALL
NO_CHARGES


@<TRIPOS>ATOM
   1 C1             0.1362     2.5079     1.1530 C.ar    
   2 C2             0.0392     1.1174     1.2494 C.ar    
   3 C3             1.1857     0.3357     1.1818 C.ar    
   4 C4             2.4427     0.9319     1.0177 C.ar    
   5 C5             2.5212     2.3218     0.8993 C.ar    
   6 C6             1.3679     3.0976     0.9794 C.ar    
   7 C7             3.6202     0.0561     1.0104 C.2     
   8 N8             4.6558     0.1326     0.2502 N.2     
   9 C9             4.7775     1.1627    -0.7879 C.3     
  10 C10            4.7467     2.5061    -0.1063 C.2     
  11 N11            3.7353     2.9739     0.6662 N.pl3   
  12 C12           -1.2411     0.4984     1.4181 C.1     
  13 C13            4.1097     4.1944     1.1375 C.2     
  14 C14            3.6164    -1.0481     1.9966 C.ar    
  15 C15            5.7077     3.4695    -0.1361 C.2     
  16 N16            5.2799     4.4935     0.6490 N.2     
  17 C17            6.9756     3.4136    -0.8812 C.2     
  18 O18            7.8396     4.4463    -0.8195 O.3     
  19 O19            7.2436     2.4361    -1.5521 O.2     
  20 O20           12.0183     6.6466    -2.0070 O.3     
  21 C21           13.2018     6.6921    -2.6506 C.2     
  22 C22           14.0696     7.8725    -2.5125 C.2     
  23 O23           13.5523     5.7580    -3.3449 O.2     
  24 N24           13.8076     8.9838    -1.7731 N.2     
  25 C25           15.2859     8.0524    -3.0961 C.2     
  26 N26           15.7306     9.2784    -2.7279 N.pl3   
  27 C27           14.7993     9.8199    -1.8958 C.2     
  28 C28           16.0334     7.0783    -3.9704 C.3     
  29 N29           17.3099     6.7762    -3.3137 N.2     
  30 C30           18.1823     7.6931    -3.0717 C.2     
  31 C31           18.0855     9.1290    -3.3613 C.ar    
  32 C32           16.9207     9.8719    -3.1541 C.ar    
  33 C33           19.2230     9.7742    -3.8623 C.ar    
  34 C34           19.2009    11.1390    -4.1218 C.ar    
  35 C35           18.0389    11.8758    -3.8782 C.ar    
  36 C36           16.9146    11.2432    -3.3985 C.ar    
  37 C37           20.3672    11.7896    -4.6385 C.1     
  38 C38           19.4344     7.2438    -2.4221 C.ar    
  39 C39            9.0704     4.3223    -1.5798 C.3     
  40 C40           11.2144     5.4513    -2.1891 C.3     
  41 C41            9.9175     5.5819    -1.3880 C.3     
  42 C42           21.3235    12.3230    -5.0621 C.1     
  43 C43           -2.2907    -0.0090     1.5565 C.1     
  44 C44            3.5745    -2.3735     1.5641 C.ar    
  45 C45            3.5712    -3.3982     2.4878 C.ar    
  46 C46            3.6093    -3.1150     3.8418 C.ar    
  47 C47            3.6510    -1.8041     4.2796 C.ar    
  48 C48            3.6606    -0.7674     3.3648 C.ar    
  49 C49           20.3058     6.3885    -3.0964 C.ar    
  50 C50           21.4711     5.9732    -2.4859 C.ar    
  51 C51           21.7780     6.4026    -1.2067 C.ar    
  52 C52           20.9201     7.2506    -0.5306 C.ar    
  53 C53           19.7516     7.6793    -1.1326 C.ar    
  54 F54           18.9138     8.5081    -0.4721 F       
  55 F55            3.7018     0.5134     3.7927 F       
  56 H56           -0.7531     3.1181     1.2101 H       
  57 H57            1.1074    -0.7389     1.2567 H       
  58 H58            1.4403     4.1726     0.9050 H       
  59 H59            5.7204     1.0404    -1.3209 H       
  60 H60            3.9445     1.0835    -1.4863 H       
  61 H61            3.5314     4.8138     1.8071 H       
  62 H62           14.8704    10.7850    -1.4163 H       
  63 H63           15.4517     6.1636    -4.0854 H       
  64 H64           16.2173     7.5250    -4.9475 H       
  65 H65           20.1234     9.2073    -4.0479 H       
  66 H66           18.0231    12.9393    -4.0657 H       
  67 H67           16.0186    11.8158    -3.2096 H       
  68 H68            9.6275     3.4531    -1.2302 H       
  69 H69            8.8339     4.2011    -2.6369 H       
  70 H70           10.9778     5.3300    -3.2462 H       
  71 H71           11.7715     4.5820    -1.8395 H       
  72 H72            9.3604     6.4511    -1.7376 H       
  73 H73           10.1541     5.7031    -0.3309 H       
  74 H74           22.1787    12.8001    -5.4410 H       
  75 H75           -3.2294    -0.4628     1.6802 H       
  76 H76            3.5444    -2.5972     0.5080 H       
  77 H77            3.5384    -4.4245     2.1532 H       
  78 H78            3.6061    -3.9216     4.5599 H       
  79 H79            3.6806    -1.5897     5.3377 H       
  80 H80           20.0684     6.0516    -4.0947 H       
  81 H81           22.1457     5.3107    -3.0077 H       
  82 H82           22.6916     6.0737    -0.7340 H       
  83 H83           21.1655     7.5821     0.4675 H       
@<TRIPOS>BOND
   1    1    2 ar
   2    1    6 ar
   3    1   56 1
   4    2    3 ar
   5    2   12 1
   6    3    4 ar
   7    3   57 1
   8    4    5 ar
   9    4    7 1
  10    5    6 ar
  11    5   11 1
  12    6   58 1
  13    7    8 2
  14    7   14 1
  15    8    9 1
  16    9   10 1
  17    9   59 1
  18    9   60 1
  19   10   11 1
  20   10   15 2
  21   11   13 1
  22   12   43 3
  23   13   16 2
  24   13   61 1
  25   14   44 ar
  26   14   48 ar
  27   15   16 1
  28   15   17 1
  29   17   18 1
  30   17   19 2
  31   18   39 1
  32   20   21 1
  33   20   40 1
  34   21   22 1
  35   21   23 2
  36   22   24 1
  37   22   25 2
  38   24   27 2
  39   25   26 1
  40   25   28 1
  41   26   27 1
  42   26   32 1
  43   27   62 1
  44   28   29 1
  45   28   63 1
  46   28   64 1
  47   29   30 2
  48   30   31 1
  49   30   38 1
  50   31   32 ar
  51   31   33 ar
  52   32   36 ar
  53   33   34 ar
  54   33   65 1
  55   34   35 ar
  56   34   37 1
  57   35   36 ar
  58   35   66 1
  59   36   67 1
  60   37   42 3
  61   38   49 ar
  62   38   53 ar
  63   39   41 1
  64   39   68 1
  65   39   69 1
  66   40   41 1
  67   40   70 1
  68   40   71 1
  69   41   72 1
  70   41   73 1
  71   42   74 1
  72   43   75 1
  73   44   45 ar
  74   44   76 1
  75   45   46 ar
  76   45   77 1
  77   46   47 ar
  78   46   78 1
  79   47   48 ar
  80   47   79 1
  81   48   55 1
  82   49   50 ar
  83   49   80 1
  84   50   51 ar
  85   50   81 1
  86   51   52 ar
  87   51   82 1
  88   52   53 ar
  89   52   83 1
  90   53   54 1

#	End of record

