#	Name: ASD01940609
#	Creating user name:	WinNT
#	Creation time:	15. 06. 2019 20:12

#	Modifying user name:	WinNT
#	Modification time:	15. 06. 2019 20:12

#	Program:	/corina/corina34_cracker 3.40 0067  02.08.2006

@<TRIPOS>MOLECULE
ASD01940609
  52   54    0    0    0
SMALL
NO_CHARGES


@<TRIPOS>ATOM
   1 C1            -3.6062     0.7509     0.8291 C.ar    
   2 C2            -3.0754    -0.5420     0.6983 C.ar    
   3 C3            -1.7057    -0.7169     0.6045 C.ar    
   4 C4            -0.8574     0.3789     0.6396 C.ar    
   5 C5            -1.3690     1.6585     0.7686 C.ar    
   6 C6            -2.7388     1.8560     0.8633 C.ar    
   7 N7            -3.2510     3.1410     0.9918 N.pl3   
   8 C8            -2.4908     4.1382     1.6123 C.ar    
   9 C9            -1.4387     3.7915     2.4493 C.ar    
  10 C10           -0.6897     4.7781     3.0607 C.ar    
  11 C11           -0.9865     6.1112     2.8408 C.ar    
  12 C12           -2.0341     6.4617     2.0081 C.ar    
  13 C13           -2.7838     5.4792     1.3876 C.ar    
  14 F14           -3.8031     5.8212     0.5696 F       
  15 I15            0.1526     7.6029     3.7715 I       
  16 F16            0.4780     0.1965     0.5476 F       
  17 C17           -5.0601     0.9480     0.9234 C.2     
  18 O18           -5.6048     0.9469     2.0112 O.2     
  19 N19           -5.7895     1.1300    -0.1952 N.am    
  20 O20           -3.9023    -1.6168     0.6645 O.3     
  21 C21           -3.3407    -2.8542     0.6673 C.ar    
  22 C22           -3.0471    -3.4800     1.8691 C.ar    
  23 C23           -2.4740    -4.7440     1.8682 C.ar    
  24 C24           -2.1964    -5.3781     0.6632 C.ar    
  25 C25           -2.4904    -4.7512    -0.5319 C.ar    
  26 C26           -3.0660    -3.4947    -0.5330 C.ar    
  27 N27           -2.1763    -5.3776     3.0768 N.am    
  28 S28           -3.1248    -6.6244     3.6136 S.o2    
  29 N29           -4.6610    -6.0315     3.7886 N.am    
  30 O30           -3.1784    -7.5719     2.5560 O.2     
  31 O31           -2.6665    -6.9434     4.9203 O.2     
  32 C32           -5.6415    -6.2092     2.7147 C.3     
  33 C33           -5.0396    -5.3293     5.0174 C.3     
  34 H34           -1.2961    -1.7112     0.5039 H       
  35 H35           -0.6998     2.5058     0.7957 H       
  36 H36           -4.1357     3.3467     0.6514 H       
  37 H37           -1.2062     2.7511     2.6225 H       
  38 H38            0.1287     4.5083     3.7117 H       
  39 H39           -2.2639     7.5033     1.8389 H       
  40 H40           -5.3552     1.1309    -1.0626 H       
  41 H41           -6.7487     1.2600    -0.1330 H       
  42 H42           -3.2636    -2.9847     2.8041 H       
  43 H43           -1.7501    -6.3616     0.6612 H       
  44 H44           -2.2739    -5.2456    -1.4674 H       
  45 H45           -3.2988    -3.0090    -1.4691 H       
  46 H46           -1.4140    -5.0873     3.6017 H       
  47 H47           -6.1809    -7.1441     2.8662 H       
  48 H48           -6.3460    -5.3775     2.7247 H       
  49 H49           -5.1271    -6.2380     1.7542 H       
  50 H50           -4.8870    -4.2582     4.8854 H       
  51 H51           -6.0896    -5.5224     5.2374 H       
  52 H52           -4.4240    -5.6850     5.8435 H       
@<TRIPOS>BOND
   1    1    2 ar
   2    1    6 ar
   3    1   17 1
   4    2    3 ar
   5    2   20 1
   6    3    4 ar
   7    3   34 1
   8    4    5 ar
   9    4   16 1
  10    5    6 ar
  11    5   35 1
  12    6    7 1
  13    7    8 1
  14    7   36 1
  15    8    9 ar
  16    8   13 ar
  17    9   10 ar
  18    9   37 1
  19   10   11 ar
  20   10   38 1
  21   11   12 ar
  22   11   15 1
  23   12   13 ar
  24   12   39 1
  25   13   14 1
  26   17   18 2
  27   17   19 am
  28   19   40 1
  29   19   41 1
  30   20   21 1
  31   21   22 ar
  32   21   26 ar
  33   22   23 ar
  34   22   42 1
  35   23   24 ar
  36   23   27 1
  37   24   25 ar
  38   24   43 1
  39   25   26 ar
  40   25   44 1
  41   26   45 1
  42   27   28 am
  43   27   46 1
  44   28   29 am
  45   28   30 2
  46   28   31 2
  47   29   32 1
  48   29   33 1
  49   32   47 1
  50   32   48 1
  51   32   49 1
  52   33   50 1
  53   33   51 1
  54   33   52 1

#	End of record

