#	Name: ASD03731538
#	Creating user name:	WinNT
#	Creation time:	15. 06. 2019 20:45

#	Modifying user name:	WinNT
#	Modification time:	15. 06. 2019 20:45

#	Program:	/corina/corina34_cracker 3.40 0067  02.08.2006

@<TRIPOS>MOLECULE
ASD03731538
  59   63    0    0    0
SMALL
NO_CHARGES


@<TRIPOS>ATOM
   1 N1            -0.0162     1.3436     0.0094 N.am    
   2 C2             0.0021    -0.0041     0.0020 C.2     
   3 O3             1.0631    -0.5976    -0.0113 O.2     
   4 N4            -1.1558    -0.6938     0.0094 N.am    
   5 C5            -1.1360    -2.1586     0.0013 C.3     
   6 C6            -2.5713    -2.6882     0.0122 C.3     
   7 C7            -2.5506    -4.2180     0.0038 C.3     
   8 C8            -3.9860    -4.7476     0.0146 C.3     
   9 C9            -3.9652    -6.2774     0.0062 C.3     
  10 C10            1.2424     2.0932     0.0014 C.3     
  11 C11            0.9425     3.5935     0.0124 C.3     
  12 O12            7.6135     2.0776    -2.1992 O.3     
  13 C13            8.9864     2.4295    -2.4527 C.3     
  14 O14            8.9067     3.7735    -2.9629 O.3     
  15 C15            7.7690     4.3025    -2.4238 C.ar    
  16 C16            6.9737     3.2591    -1.9553 C.ar    
  17 C17            7.3411     5.6114    -2.2918 C.ar    
  18 C18            6.1170     5.8961    -1.6943 C.ar    
  19 C19            5.3276     4.8450    -1.2377 C.ar    
  20 C20            5.7542     3.5392    -1.3622 C.ar    
  21 O21            5.5236     7.1003    -1.4533 O.3     
  22 C22            4.0742     5.4619    -0.6771 C.3     
  23 C23            4.1170     6.8980    -1.2168 C.3     
  24 N24            2.2011     4.3432     0.0044 N.am    
  25 C25            2.8367     4.7347    -1.1181 C.2     
  26 C26            4.0424     5.4282     0.8221 C.ar    
  27 C27            4.8782     5.9144     1.8026 C.ar    
  28 C28            4.5685     5.7189     3.1367 C.ar    
  29 C29            3.4181     5.0336     3.4830 C.ar    
  30 C30            2.5784     4.5438     2.5046 C.ar    
  31 C31            2.8820     4.7363     1.1591 C.ar    
  32 O32            2.4789     4.5384    -2.2602 O.2     
  33 H33           -0.8627     1.8171     0.0160 H       
  34 H34           -2.0023    -0.2203     0.0200 H       
  35 H35           -0.6258    -2.5101    -0.8955 H       
  36 H36           -0.6088    -2.5197     0.8844 H       
  37 H37           -3.0815    -2.3367     0.9090 H       
  38 H38           -3.0985    -2.3271    -0.8709 H       
  39 H39           -2.0404    -4.5695    -0.8930 H       
  40 H40           -2.0234    -4.5791     0.8868 H       
  41 H41           -4.4962    -4.3961     0.9114 H       
  42 H42           -4.5132    -4.3865    -0.8684 H       
  43 H43           -3.4550    -6.6290    -0.8906 H       
  44 H44           -3.4380    -6.6385     0.8893 H       
  45 H45           -4.9878    -6.6547     0.0139 H       
  46 H46            1.8260     1.8329     0.8845 H       
  47 H47            1.8090     1.8425    -0.8954 H       
  48 H48            0.3589     3.8538    -0.8707 H       
  49 H49            0.3759     3.8443     0.9091 H       
  50 H50            9.5650     2.4041    -1.5293 H       
  51 H51            9.4216     1.7625    -3.1969 H       
  52 H52            7.9611     6.4176    -2.6550 H       
  53 H53            5.1354     2.7332    -0.9965 H       
  54 H54            3.7442     7.6023    -0.4731 H       
  55 H55            3.5525     6.9794    -2.1457 H       
  56 H56            5.7760     6.4491     1.5299 H       
  57 H57            5.2233     6.1009     3.9060 H       
  58 H58            3.1765     4.8809     4.5245 H       
  59 H59            1.6822     4.0092     2.7829 H       
@<TRIPOS>BOND
   1    1    2 am
   2    1   10 1
   3    1   33 1
   4    2    3 2
   5    2    4 am
   6    4    5 1
   7    4   34 1
   8    5    6 1
   9    5   35 1
  10    5   36 1
  11    6    7 1
  12    6   37 1
  13    6   38 1
  14    7    8 1
  15    7   39 1
  16    7   40 1
  17    8    9 1
  18    8   41 1
  19    8   42 1
  20    9   43 1
  21    9   44 1
  22    9   45 1
  23   10   11 1
  24   10   46 1
  25   10   47 1
  26   11   24 1
  27   11   48 1
  28   11   49 1
  29   12   13 1
  30   12   16 1
  31   13   14 1
  32   13   50 1
  33   13   51 1
  34   14   15 1
  35   15   16 ar
  36   15   17 ar
  37   16   20 ar
  38   17   18 ar
  39   17   52 1
  40   18   19 ar
  41   18   21 1
  42   19   20 ar
  43   19   22 1
  44   20   53 1
  45   21   23 1
  46   22   23 1
  47   22   25 1
  48   22   26 1
  49   23   54 1
  50   23   55 1
  51   24   25 am
  52   24   31 1
  53   25   32 2
  54   26   27 ar
  55   26   31 ar
  56   27   28 ar
  57   27   56 1
  58   28   29 ar
  59   28   57 1
  60   29   30 ar
  61   29   58 1
  62   30   31 ar
  63   30   59 1

#	End of record

