#	Name: ASD05503005
#	Creating user name:	WinNT
#	Creation time:	15. 06. 2019 21:01

#	Modifying user name:	WinNT
#	Modification time:	15. 06. 2019 21:01

#	Program:	/corina/corina34_cracker 3.40 0067  02.08.2006

@<TRIPOS>MOLECULE
ASD05503005
  42   43    0    0    0
SMALL
NO_CHARGES


@<TRIPOS>ATOM
   1 C1             0.0964     1.2921     0.0585 C.ar    
   2 C2             0.1980    -0.0873     0.1873 C.ar    
   3 C3             1.4385    -0.7019     0.0928 C.ar    
   4 C4             2.5737     0.0640    -0.1302 C.ar    
   5 C5             2.4652     1.4434    -0.2581 C.ar    
   6 C6             1.2288     2.0521    -0.1634 C.ar    
   7 N7            -0.9492    -0.8561     0.4126 N.am    
   8 C8            -1.0351    -2.1025    -0.0930 C.2     
   9 C9            -2.2161    -2.9742     0.2481 C.3     
  10 O10           -0.1620    -2.5225    -0.8225 O.2     
  11 C11           -2.0693    -4.3278    -0.4498 C.3     
  12 C12           -3.2684    -5.2128    -0.1035 C.3     
  13 N13            3.8258    -0.5516    -0.2256 N.am    
  14 C14            4.9261     0.0865     0.2201 C.2     
  15 C15            6.2616    -0.5138     0.0176 C.ar    
  16 O16            4.8203     1.1558     0.7886 O.2     
  17 C17            6.3866    -1.7414    -0.6346 C.ar    
  18 C18            7.6362    -2.2960    -0.8208 C.ar    
  19 C19            8.7636    -1.6382    -0.3625 C.ar    
  20 C20            8.6466    -0.4210     0.2854 C.ar    
  21 C21            7.4038     0.1473     0.4729 C.ar    
  22 C22            7.2783     1.4731     1.1783 C.3     
  23 F23            8.5492     1.9274     1.5468 F       
  24 F24            6.6813     2.4030     0.3204 F       
  25 F25            6.4880     1.3197     2.3224 F       
  26 H26           -0.8694     1.7705     0.1275 H       
  27 H27            1.5202    -1.7742     0.1930 H       
  28 H28            3.3485     2.0403    -0.4313 H       
  29 H29            1.1470     3.1244    -0.2636 H       
  30 H30           -1.6826    -0.4920     0.9326 H       
  31 H31           -2.2574    -3.1242     1.3269 H       
  32 H32           -3.1336    -2.4903    -0.0868 H       
  33 H33           -2.0281    -4.1778    -1.5286 H       
  34 H34           -1.1518    -4.8117    -0.1149 H       
  35 H35           -4.1859    -4.7290    -0.4384 H       
  36 H36           -3.1638    -6.1772    -0.6007 H       
  37 H37           -3.3097    -5.3629     0.9754 H       
  38 H38            3.9024    -1.4377    -0.6125 H       
  39 H39            5.5072    -2.2561    -0.9926 H       
  40 H40            7.7344    -3.2460    -1.3250 H       
  41 H41            9.7394    -2.0767    -0.5107 H       
  42 H42            9.5307     0.0872     0.6411 H       
@<TRIPOS>BOND
   1    1    2 ar
   2    1    6 ar
   3    1   26 1
   4    2    3 ar
   5    2    7 1
   6    3    4 ar
   7    3   27 1
   8    4    5 ar
   9    4   13 1
  10    5    6 ar
  11    5   28 1
  12    6   29 1
  13    7    8 am
  14    7   30 1
  15    8    9 1
  16    8   10 2
  17    9   11 1
  18    9   31 1
  19    9   32 1
  20   11   12 1
  21   11   33 1
  22   11   34 1
  23   12   35 1
  24   12   36 1
  25   12   37 1
  26   13   14 am
  27   13   38 1
  28   14   15 1
  29   14   16 2
  30   15   17 ar
  31   15   21 ar
  32   17   18 ar
  33   17   39 1
  34   18   19 ar
  35   18   40 1
  36   19   20 ar
  37   19   41 1
  38   20   21 ar
  39   20   42 1
  40   21   22 1
  41   22   23 1
  42   22   24 1
  43   22   25 1

#	End of record

