#	Name: ASD02908006
#	Creating user name:	WinNT
#	Creation time:	15. 06. 2019 20:26

#	Modifying user name:	WinNT
#	Modification time:	15. 06. 2019 20:26

#	Program:	/corina/corina34_cracker 3.40 0067  02.08.2006

@<TRIPOS>MOLECULE
ASD02908006
  35   36    0    0    0
SMALL
NO_CHARGES


@<TRIPOS>ATOM
   1 C1            -0.0184     1.5028     0.0103 C.2     
   2 N2             1.3897    -0.4735    -0.0138 N.am    
   3 C3             0.0021    -0.0041     0.0020 C.3     
   4 C4            -0.7002    -0.5305     1.2552 C.3     
   5 C5            -0.7886    -2.0334     1.1876 C.2     
   6 O6            -0.3362    -2.6230     0.2349 O.2     
   7 O7            -1.3698    -2.7171     2.1859 O.3     
   8 O8             1.0197     2.1211     0.0037 O.2     
   9 O9            -1.1898     2.1580     0.0194 O.3     
  10 C10            2.0495    -0.5869    -1.1835 C.2     
  11 O11            1.4945    -0.3002    -2.2230 O.2     
  12 C12            3.4770    -1.0698    -1.1997 C.3     
  13 N13            4.5151    -1.8235    -4.6510 N.pl3   
  14 C14            3.9838    -2.1700    -3.4386 C.2     
  15 C15            3.9789    -1.1059    -2.6202 C.2     
  16 C16            4.5541     0.0135    -3.3698 C.ar    
  17 C17            4.8110     1.3527    -3.0695 C.ar    
  18 C18            5.3726     2.1641    -4.0144 C.ar    
  19 C19            5.6902     1.6678    -5.2715 C.ar    
  20 C20            5.4450     0.3500    -5.5890 C.ar    
  21 C21            4.8742    -0.4943    -4.6420 C.ar    
  22 H22            1.8336    -0.7028     0.8177 H       
  23 H23           -0.5153    -0.3696    -0.8850 H       
  24 H24           -0.1328    -0.2393     2.1391 H       
  25 H25           -1.7041    -0.1098     1.3130 H       
  26 H26           -1.4028    -3.6796     2.0978 H       
  27 H27           -1.1523     3.1243     0.0245 H       
  28 H28            4.0965    -0.3920    -0.6125 H       
  29 H29            3.5267    -2.0708    -0.7712 H       
  30 H30            4.6261    -2.4256    -5.4033 H       
  31 H31            3.6217    -3.1537    -3.1787 H       
  32 H32            4.5662     1.7459    -2.0938 H       
  33 H33            5.5707     3.2000    -3.7817 H       
  34 H34            6.1338     2.3215    -6.0079 H       
  35 H35            5.6954    -0.0265    -6.5698 H       
@<TRIPOS>BOND
   1    1    3 1
   2    1    8 2
   3    1    9 1
   4    2   10 am
   5    2    3 1
   6    2   22 1
   7    3    4 1
   8    3   23 1
   9    4    5 1
  10    4   24 1
  11    4   25 1
  12    5    6 2
  13    5    7 1
  14    7   26 1
  15    9   27 1
  16   10   11 2
  17   10   12 1
  18   12   15 1
  19   12   28 1
  20   12   29 1
  21   13   14 1
  22   13   21 1
  23   13   30 1
  24   14   15 2
  25   14   31 1
  26   15   16 1
  27   16   17 ar
  28   16   21 ar
  29   17   18 ar
  30   17   32 1
  31   18   19 ar
  32   18   33 1
  33   19   20 ar
  34   19   34 1
  35   20   21 ar
  36   20   35 1

#	End of record

