#	Name: ASD07931766
#	Creating user name:	WinNT
#	Creation time:	15. 06. 2019 21:13

#	Modifying user name:	WinNT
#	Modification time:	15. 06. 2019 21:13

#	Program:	/corina/corina34_cracker 3.40 0067  02.08.2006

@<TRIPOS>MOLECULE
ASD07931766
  65   68    0    0    0
SMALL
NO_CHARGES


@<TRIPOS>ATOM
   1 C1            -0.0180     1.4754     0.0102 C.2     
   2 C2             0.0021    -0.0041     0.0020 C.2     
   3 N3             1.1814     2.1509     0.0023 N.am    
   4 N4             1.1194    -0.6400     0.4288 N.am    
   5 C5             2.2493     0.1650     0.9143 C.3     
   6 C6             2.4261     1.3707    -0.0208 C.3     
   7 C7            -1.2008     2.1485     0.0195 C.2     
   8 C8            -1.2247     3.5486     0.0291 C.2     
   9 C9            -0.0458     4.2425     0.0303 C.2     
  10 C10            1.2139     3.4948     0.0143 C.2     
  11 O11           -0.9642    -0.6358    -0.3794 O.2     
  12 O12            2.2807     4.0852     0.0118 O.2     
  13 C13            1.2002    -2.1026     0.4064 C.3     
  14 C14            1.7676    -2.5615    -0.9383 C.3     
  15 C15            1.8522    -4.0899    -0.9619 C.3     
  16 C16            2.3641    -4.5440    -2.3324 C.3     
  17 C17            1.4344    -3.9964    -3.4196 C.3     
  18 C18            1.3659    -2.4716    -3.3011 C.3     
  19 O19            0.9123    -2.1167    -1.9932 O.3     
  20 C20            0.4070    -1.9301    -4.3298 C.ar    
  21 C21            0.8810    -1.4838    -5.5492 C.ar    
  22 C22            0.0013    -0.9871    -6.4928 C.ar    
  23 C23           -1.3523    -0.9370    -6.2171 C.ar    
  24 C24           -1.8264    -1.3841    -4.9980 C.ar    
  25 C25           -0.9472    -1.8849    -4.0561 C.ar    
  26 C26           -2.3112    -0.3945    -7.2454 C.3     
  27 F27           -2.7549    -1.4376    -8.0654 F       
  28 F28           -3.4064     0.1892    -6.5997 F       
  29 F29           -1.6624     0.5684    -8.0258 F       
  30 C30            0.4239     6.4402     1.0348 C.2     
  31 N31            0.2552     7.6848     0.6804 N.2     
  32 C32           -0.3161     7.7283    -0.5326 C.2     
  33 C33           -0.5113     6.4636    -0.9513 C.2     
  34 N34           -0.0431     5.6402     0.0404 N.pl3   
  35 C35           -0.6774     8.9771    -1.2948 C.3     
  36 H36            2.0426     0.5136     1.9261 H       
  37 H37            3.1572    -0.4381     0.9099 H       
  38 H38            2.6247     1.0242    -1.0350 H       
  39 H39            3.2543     1.9881     0.3270 H       
  40 H40           -2.1297     1.5976     0.0190 H       
  41 H41           -2.1668     4.0767     0.0353 H       
  42 H42            1.8522    -2.4428     1.2110 H       
  43 H43            0.2042    -2.5236     0.5432 H       
  44 H44            2.7635    -2.1401    -1.0757 H       
  45 H45            2.5387    -4.4287    -0.1861 H       
  46 H46            0.8632    -4.5122    -0.7843 H       
  47 H47            3.3731    -4.1627    -2.4894 H       
  48 H48            2.3737    -5.6331    -2.3754 H       
  49 H49            1.8221    -4.2684    -4.4013 H       
  50 H50            0.4369    -4.4168    -3.2916 H       
  51 H51            2.3565    -2.0491    -3.4693 H       
  52 H52            1.9385    -1.5230    -5.7646 H       
  53 H53            0.3717    -0.6378    -7.4453 H       
  54 H54           -2.8839    -1.3447    -4.7825 H       
  55 H55           -1.3180    -2.2376    -3.1050 H       
  56 H56            0.8650     6.1025     1.9610 H       
  57 H57           -0.9521     6.1566    -1.8883 H       
  58 H58            0.1651     9.2797    -1.9167 H       
  59 H59           -1.5430     8.7793    -1.9270 H       
  60 H60           -0.9156     9.7756    -0.5921 H       
  61 C61            9.3156    15.9837     6.9683 C.2     
  62 O62            9.3320    14.7756     6.9617 O.2     
  63 O63           10.4688    16.6706     6.9610 O.3     
  64 H64            8.3731    16.5109     6.9756 H       
  65 H65           10.4051    17.6355     6.9668 H       
@<TRIPOS>BOND
   1    1    2 1
   2    1    3 1
   3    1    7 2
   4    2    4 am
   5    2   11 2
   6    3    6 1
   7    3   10 am
   8    4    5 1
   9    4   13 1
  10    5    6 1
  11    5   36 1
  12    5   37 1
  13    6   38 1
  14    6   39 1
  15    7    8 1
  16    7   40 1
  17    8    9 2
  18    8   41 1
  19    9   10 1
  20    9   34 1
  21   10   12 2
  22   13   14 1
  23   13   42 1
  24   13   43 1
  25   14   15 1
  26   14   19 1
  27   14   44 1
  28   15   16 1
  29   15   45 1
  30   15   46 1
  31   16   17 1
  32   16   47 1
  33   16   48 1
  34   17   18 1
  35   17   49 1
  36   17   50 1
  37   18   19 1
  38   18   20 1
  39   18   51 1
  40   20   21 ar
  41   20   25 ar
  42   21   22 ar
  43   21   52 1
  44   22   23 ar
  45   22   53 1
  46   23   24 ar
  47   23   26 1
  48   24   25 ar
  49   24   54 1
  50   25   55 1
  51   26   27 1
  52   26   28 1
  53   26   29 1
  54   30   31 2
  55   30   34 1
  56   30   56 1
  57   31   32 1
  58   32   33 2
  59   32   35 1
  60   33   34 1
  61   33   57 1
  62   35   58 1
  63   35   59 1
  64   35   60 1
  65   61   62 2
  66   61   63 1
  67   61   64 1
  68   63   65 1

#	End of record

