#	Name: ASD01150786
#	Creating user name:	WinNT
#	Creation time:	15. 06. 2019 19:05

#	Modifying user name:	WinNT
#	Modification time:	15. 06. 2019 19:05

#	Program:	/corina/corina34_cracker 3.40 0067  02.08.2006

@<TRIPOS>MOLECULE
ASD01150786
  52   56    0    0    0
SMALL
NO_CHARGES


@<TRIPOS>ATOM
   1 C1            -0.0313     1.2744    -0.4481 C.2     
   2 O2            -0.6133     0.8774     0.5395 O.2     
   3 N3             2.1308     4.2436     0.0016 N.ar    
   4 C4             1.0720     3.4880    -0.1267 C.ar    
   5 C5             1.1753     2.0965    -0.3075 C.ar    
   6 C6             2.4500     1.5032    -0.3511 C.ar    
   7 C7             3.5762     2.3511    -0.2088 C.ar    
   8 C8             4.8781     1.8359    -0.2413 C.ar    
   9 C9             5.9510     2.6917    -0.0995 C.ar    
  10 C10            5.7448     4.0641     0.0763 C.ar    
  11 C11            4.4881     4.5847     0.1108 C.ar    
  12 C12            3.3730     3.7420    -0.0309 C.ar    
  13 C13            2.6089     0.0462    -0.5385 C.ar    
  14 C14            3.2209    -0.4502    -1.6916 C.ar    
  15 C15            3.3664    -1.8114    -1.8598 C.ar    
  16 C16            2.9073    -2.6847    -0.8895 C.ar    
  17 C17            2.2996    -2.1998     0.2553 C.ar    
  18 C18            2.1531    -0.8407     0.4394 C.ar    
  19 N19            7.2515     2.1844    -0.1310 N.3     
  20 C20            8.2405     3.2591     0.0374 C.3     
  21 C21            9.6463     2.6531     0.0566 C.3     
  22 O22            9.8554     1.9085    -1.1464 O.3     
  23 C23            8.9102     0.8532    -1.3420 C.3     
  24 C24            7.4969     1.4409    -1.3753 C.3     
  25 C25           -0.2938     4.1231    -0.0794 C.3     
  26 C26           -0.5446     0.9179    -1.8194 C.3     
  27 C27           -1.3910    -0.3500    -1.9493 C.3     
  28 C28           -2.0517     1.0256    -2.0597 C.3     
  29 H29            5.0410     0.7768    -0.3761 H       
  30 H30            6.5956     4.7202     0.1865 H       
  31 H31            4.3478     5.6468     0.2473 H       
  32 H32            3.5790     0.2303    -2.4500 H       
  33 H33            3.8394    -2.1966    -2.7510 H       
  34 H34            3.0235    -3.7497    -1.0264 H       
  35 H35            1.9430    -2.8870     1.0083 H       
  36 H36            1.6827    -0.4634     1.3353 H       
  37 H37            8.1585     3.9623    -0.7913 H       
  38 H38            8.0557     3.7797     0.9770 H       
  39 H39           10.3857     3.4511     0.1239 H       
  40 H40            9.7454     1.9907     0.9165 H       
  41 H41            9.1173     0.3495    -2.2862 H       
  42 H42            8.9879     0.1385    -0.5227 H       
  43 H43            6.7694     0.6344    -1.4670 H       
  44 H44            7.4031     2.1151    -2.2267 H       
  45 H45           -0.6365     4.3238    -1.0945 H       
  46 H46           -0.9923     3.4464     0.4127 H       
  47 H47           -0.2405     5.0584     0.4777 H       
  48 H48            0.1168     1.1687    -2.6488 H       
  49 H49           -1.2869    -0.9331    -2.8643 H       
  50 H50           -1.5767    -0.9262    -1.0429 H       
  51 H51           -2.6721     1.3544    -1.2259 H       
  52 H52           -2.3822     1.3475    -3.0473 H       
@<TRIPOS>BOND
   1    1    2 2
   2    1    5 1
   3    1   26 1
   4    3    4 ar
   5    3   12 ar
   6    4    5 ar
   7    4   25 1
   8    5    6 ar
   9    6    7 ar
  10    6   13 1
  11    7    8 ar
  12    7   12 ar
  13    8    9 ar
  14    8   29 1
  15    9   10 ar
  16    9   19 1
  17   10   11 ar
  18   10   30 1
  19   11   12 ar
  20   11   31 1
  21   13   14 ar
  22   13   18 ar
  23   14   15 ar
  24   14   32 1
  25   15   16 ar
  26   15   33 1
  27   16   17 ar
  28   16   34 1
  29   17   18 ar
  30   17   35 1
  31   18   36 1
  32   19   20 1
  33   19   24 1
  34   20   21 1
  35   20   37 1
  36   20   38 1
  37   21   22 1
  38   21   39 1
  39   21   40 1
  40   22   23 1
  41   23   24 1
  42   23   41 1
  43   23   42 1
  44   24   43 1
  45   24   44 1
  46   25   45 1
  47   25   46 1
  48   25   47 1
  49   26   27 1
  50   26   28 1
  51   26   48 1
  52   27   28 1
  53   27   49 1
  54   27   50 1
  55   28   51 1
  56   28   52 1

#	End of record

