#	Name: ASD01915608
#	Creating user name:	WinNT
#	Creation time:	15. 06. 2019 20:05

#	Modifying user name:	WinNT
#	Modification time:	15. 06. 2019 20:05

#	Program:	/corina/corina34_cracker 3.40 0067  02.08.2006

@<TRIPOS>MOLECULE
ASD01915608
  47   50    0    0    0
SMALL
NO_CHARGES


@<TRIPOS>ATOM
   1 C1            -0.0263     1.3428     0.0760 C.2     
   2 N2            -0.0130    -0.0322     0.0029 N.pl3   
   3 C3            -1.2607    -0.8004    -0.0861 C.3     
   4 C4            -2.3733    -0.0421     0.6356 C.3     
   5 N5            -2.4196     1.3693     0.2696 N.am    
   6 C6            -1.2881     2.0972     0.1091 C.2     
   7 C7             1.2764     1.7535     0.1193 C.2     
   8 C8             2.0305     0.5729     0.0805 C.2     
   9 N9             1.1961    -0.4385     0.0173 N.2     
  10 C10            3.5345     0.4807     0.1073 C.3     
  11 O11            4.0911     1.7949     0.1791 O.3     
  12 C12            5.4463     1.8900     0.2114 C.ar    
  13 O13           -1.3146     3.3082    -0.0012 O.2     
  14 C14            6.0540     3.1352     0.2812 C.ar    
  15 C15            6.2244     0.7418     0.1804 C.ar    
  16 C16            7.6018     0.8411     0.2133 C.ar    
  17 C17            8.2052     2.0836     0.2771 C.ar    
  18 C18            7.4319     3.2292     0.3138 C.ar    
  19 C19           -3.6558     1.9829     0.0808 C.ar    
  20 C20           -4.2145     2.0267    -1.1902 C.ar    
  21 C21           -5.4445     2.6392    -1.3677 C.ar    
  22 C22           -6.0760     3.1892    -0.2639 C.ar    
  23 C23           -5.4617     3.1106     0.9785 C.ar    
  24 N24           -4.2890     2.5140     1.1160 N.ar    
  25 C25           -3.4911     1.4154    -2.3624 C.3     
  26 O26           -6.0731     3.6469     2.0645 O.3     
  27 C27           -5.3907     3.5340     3.3149 C.3     
  28 H28           -1.5316    -0.9342    -1.1334 H       
  29 H29           -1.1220    -1.7751     0.3816 H       
  30 H30           -3.3304    -0.5016     0.3885 H       
  31 H31           -2.2138    -0.1220     1.7109 H       
  32 H32            1.6447     2.7674     0.1715 H       
  33 H33            3.8478    -0.0947     0.9784 H       
  34 H34            3.8844    -0.0130    -0.7993 H       
  35 H35            5.4504     4.0303     0.3096 H       
  36 H36            5.7536    -0.2289     0.1310 H       
  37 H37            8.2080    -0.0524     0.1895 H       
  38 H38            9.2823     2.1591     0.3027 H       
  39 H39            7.9055     4.1985     0.3633 H       
  40 H40           -5.9009     2.6873    -2.3453 H       
  41 H41           -7.0354     3.6740    -0.3690 H       
  42 H42           -3.7079     0.3481    -2.4067 H       
  43 H43           -3.8245     1.8924    -3.2840 H       
  44 H44           -2.4177     1.5635    -2.2443 H       
  45 H45           -5.2410     2.4810     3.5534 H       
  46 H46           -4.4236     4.0323     3.2474 H       
  47 H47           -5.9870     4.0027     4.0978 H       
@<TRIPOS>BOND
   1    1    2 1
   2    1    7 2
   3    1    6 1
   4    2    3 1
   5    2    9 1
   6    3    4 1
   7    3   28 1
   8    3   29 1
   9    4    5 1
  10    4   30 1
  11    4   31 1
  12    5    6 am
  13    5   19 1
  14    6   13 2
  15    7    8 1
  16    7   32 1
  17    8    9 2
  18    8   10 1
  19   10   11 1
  20   10   33 1
  21   10   34 1
  22   11   12 1
  23   12   14 ar
  24   12   15 ar
  25   14   18 ar
  26   14   35 1
  27   15   16 ar
  28   15   36 1
  29   16   17 ar
  30   16   37 1
  31   17   18 ar
  32   17   38 1
  33   18   39 1
  34   19   20 ar
  35   19   24 ar
  36   20   21 ar
  37   20   25 1
  38   21   22 ar
  39   21   40 1
  40   22   23 ar
  41   22   41 1
  42   23   24 ar
  43   23   26 1
  44   25   42 1
  45   25   43 1
  46   25   44 1
  47   26   27 1
  48   27   45 1
  49   27   46 1
  50   27   47 1

#	End of record

