#	Name: ASD03082430
#	Creating user name:	WinNT
#	Creation time:	15. 06. 2019 20:27

#	Modifying user name:	WinNT
#	Modification time:	15. 06. 2019 20:27

#	Program:	/corina/corina34_cracker 3.40 0067  02.08.2006

@<TRIPOS>MOLECULE
ASD03082430
  50   54    0    0    0
SMALL
NO_CHARGES


@<TRIPOS>ATOM
   1 C1             1.0994     3.4392    -0.4837 C.ar    
   2 C2             0.0440     4.0516    -1.1471 C.ar    
   3 C3            -0.0056     5.4289    -1.2459 C.ar    
   4 C4             0.9964     6.2030    -0.6835 C.ar    
   5 C5             2.0559     5.5920    -0.0172 C.ar    
   6 N6             1.1490     2.0442    -0.3852 N.pl3   
   7 C7             2.3835     1.3929    -0.2959 C.2     
   8 C8             2.5760     0.0172    -0.0809 C.2     
   9 N9             3.5624     1.9597    -0.4039 N.2     
  10 N10            4.5404     0.9678    -0.2557 N.pl3   
  11 C11            3.9070    -0.2179    -0.0583 C.2     
  12 C12            5.9239     1.1628    -0.3061 C.ar    
  13 C13            6.7461     0.2753    -0.9973 C.ar    
  14 C14            6.5157     2.2533     0.3291 C.ar    
  15 C15            7.8844     2.4102     0.2559 C.ar    
  16 N16            8.6301     1.5444    -0.4043 N.ar    
  17 C17            8.1069     0.5031    -1.0230 C.ar    
  18 C18            8.5361     3.5853     0.9380 C.3     
  19 H19            8.7523    -0.1824    -1.5521 H       
  20 C20            2.1082     4.2111     0.0767 C.ar    
  21 O21            1.1778     7.5565    -0.6419 O.3     
  22 C22            2.1394     7.7832     0.4055 C.3     
  23 O23            2.9004     6.5615     0.4414 O.3     
  24 F24            2.9648     8.8674     0.0887 F       
  25 F25            1.4936     7.9961     1.6281 F       
  26 C26            4.5696    -1.5554     0.1493 C.3     
  27 C27            4.6199    -2.2997    -1.1601 C.2     
  28 N28            5.1730    -3.5274    -1.2165 N.am    
  29 O29            4.1628    -1.7938    -2.1631 O.2     
  30 C30            5.2219    -4.2510    -2.4895 C.3     
  31 C31            6.3151    -5.3078    -2.6598 C.3     
  32 C32            4.8587    -5.7371    -2.4718 C.3     
  33 H33           -0.7384     3.4507    -1.5866 H       
  34 H34           -0.8269     5.9030    -1.7628 H       
  35 H35            0.3272     1.5289    -0.3789 H       
  36 H36            1.7980    -0.7213     0.0445 H       
  37 H37            6.3243    -0.5792    -1.5055 H       
  38 H38            5.9111     2.9657     0.8708 H       
  39 H39            8.8029     3.3109     1.9585 H       
  40 H40            9.4351     3.8699     0.3914 H       
  41 H41            7.8415     4.4252     0.9574 H       
  42 H42            2.9287     3.7355     0.5933 H       
  43 H43            5.5831    -1.4050     0.5210 H       
  44 H44            3.9988    -2.1349     0.8749 H       
  45 H45            5.5386    -3.9320    -0.4143 H       
  46 H46            4.9385    -3.6737    -3.3695 H       
  47 H47            6.7506    -5.4260    -3.6520 H       
  48 H48            6.9979    -5.4647    -1.8248 H       
  49 H49            4.5833    -6.1765    -1.5130 H       
  50 H50            4.3360    -6.1378    -3.3403 H       
@<TRIPOS>BOND
   1    1    2 ar
   2    1    6 1
   3    1   20 ar
   4    2    3 ar
   5    2   33 1
   6    3    4 ar
   7    3   34 1
   8    4    5 ar
   9    4   21 1
  10    5   20 ar
  11    5   23 1
  12    6    7 1
  13    6   35 1
  14    7    8 1
  15    7    9 2
  16    8   11 2
  17    8   36 1
  18    9   10 1
  19   10   11 1
  20   10   12 1
  21   11   26 1
  22   12   13 ar
  23   12   14 ar
  24   13   17 ar
  25   13   37 1
  26   14   15 ar
  27   14   38 1
  28   15   16 ar
  29   15   18 1
  30   16   17 ar
  31   17   19 1
  32   18   39 1
  33   18   40 1
  34   18   41 1
  35   20   42 1
  36   21   22 1
  37   22   23 1
  38   22   24 1
  39   22   25 1
  40   26   27 1
  41   26   43 1
  42   26   44 1
  43   27   28 am
  44   27   29 2
  45   28   30 1
  46   28   45 1
  47   30   31 1
  48   30   32 1
  49   30   46 1
  50   31   32 1
  51   31   47 1
  52   31   48 1
  53   32   49 1
  54   32   50 1

#	End of record

