#	Name: ASD01915426
#	Creating user name:	WinNT
#	Creation time:	15. 06. 2019 20:05

#	Modifying user name:	WinNT
#	Modification time:	15. 06. 2019 20:05

#	Program:	/corina/corina34_cracker 3.40 0067  02.08.2006

@<TRIPOS>MOLECULE
ASD01915426
  40   42    0    0    0
SMALL
NO_CHARGES


@<TRIPOS>ATOM
   1 C1            -0.0166     1.3749     0.0096 C.ar    
   2 C2             0.0021    -0.0041     0.0020 C.ar    
   3 C3             1.2078    -0.6831    -0.0127 C.ar    
   4 C4             2.4028     0.0148    -0.0203 C.ar    
   5 C5             2.4000     1.3939    -0.0129 C.ar    
   6 C6             1.1862     2.0866     0.0019 C.ar    
   7 C7             1.1750     3.5185     0.0093 C.1     
   8 C8             1.1659     4.6925     0.0153 C.1     
   9 C9             1.1547     6.1244     0.0226 C.ar    
  10 N10           -0.0720     8.1384     0.0500 N.ar    
  11 C11           -0.0574     6.8251     0.0433 C.ar    
  12 C12            2.3577     6.8453     0.0150 C.ar    
  13 C13            2.2959     8.2247     0.0225 C.ar    
  14 C14            1.0490     8.8508     0.0372 C.ar    
  15 C15            0.9745    10.3292     0.0457 C.2     
  16 C16            1.5393    12.4923     0.0447 C.3     
  17 N17            2.0163    11.1004     0.0288 N.2     
  18 N18           -0.2082    11.0324     0.0664 N.am    
  19 C19            0.0293    12.3611     0.0695 C.2     
  20 C20            2.0392    13.2166     1.2963 C.3     
  21 C21            1.9897    13.2284    -1.2187 C.3     
  22 O22           -0.7884    13.2562     0.0887 O.2     
  23 C23           -1.5405    10.4233     0.0827 C.3     
  24 H24           -0.9584     1.9035     0.0169 H       
  25 H25           -0.9266    -0.5554     0.0079 H       
  26 H26            1.2162    -1.7630    -0.0178 H       
  27 H27            3.3399    -0.5219    -0.0318 H       
  28 H28            3.3334     1.9372    -0.0182 H       
  29 H29           -0.9897     6.2801     0.0534 H       
  30 H30            3.3090     6.3341     0.0039 H       
  31 H31            3.2021     8.8122     0.0173 H       
  32 H32            3.1290    13.2386     1.2925 H       
  33 H33            1.6552    14.2367     1.3036 H       
  34 H34            1.6896    12.6904     2.1846 H       
  35 H35            1.6053    12.7106    -2.0974 H       
  36 H36            1.6059    14.2485    -1.2012 H       
  37 H37            3.0788    13.2506    -1.2576 H       
  38 H38           -1.8560    10.2671     1.1143 H       
  39 H39           -2.2483    11.0842    -0.4176 H       
  40 H40           -1.5084     9.4654    -0.4364 H       
@<TRIPOS>BOND
   1    1    2 ar
   2    1    6 ar
   3    1   24 1
   4    2    3 ar
   5    2   25 1
   6    3    4 ar
   7    3   26 1
   8    4    5 ar
   9    4   27 1
  10    5    6 ar
  11    5   28 1
  12    6    7 1
  13    7    8 3
  14    8    9 1
  15    9   12 ar
  16    9   11 ar
  17   10   11 ar
  18   10   14 ar
  19   11   29 1
  20   12   13 ar
  21   12   30 1
  22   13   14 ar
  23   13   31 1
  24   14   15 1
  25   15   18 1
  26   15   17 2
  27   16   17 1
  28   16   19 1
  29   16   20 1
  30   16   21 1
  31   18   19 am
  32   18   23 1
  33   19   22 2
  34   20   32 1
  35   20   33 1
  36   20   34 1
  37   21   35 1
  38   21   36 1
  39   21   37 1
  40   23   38 1
  41   23   39 1
  42   23   40 1

#	End of record

