#	Name: ASD08150452
#	Creating user name:	WinNT
#	Creation time:	15. 06. 2019 21:16

#	Modifying user name:	WinNT
#	Modification time:	15. 06. 2019 21:16

#	Program:	/corina/corina34_cracker 3.40 0067  02.08.2006

@<TRIPOS>MOLECULE
ASD08150452
  49   52    0    0    0
SMALL
NO_CHARGES


@<TRIPOS>ATOM
   1 N1            -0.0169     1.3961     0.0097 N.pl3   
   2 N2             0.0021    -0.0041     0.0020 N.2     
   3 C3             1.2345    -0.4264    -0.0120 C.2     
   4 C4             2.0963     0.6917    -0.0142 C.ar    
   5 C5             3.5009     0.8376    -0.0268 C.ar    
   6 C6             4.0549     2.1103    -0.0253 C.ar    
   7 C7             3.2390     3.2299    -0.0115 C.ar    
   8 C8             1.8668     3.1022     0.0013 C.ar    
   9 C9             1.2818     1.8385    -0.0003 C.ar    
  10 O10            5.8624    -0.4630    -0.0557 O.3     
  11 B11            4.4281    -0.4292    -0.0419 Du      
  12 O12            4.0269    -1.8066    -0.0445 O.3     
  13 C13            4.9661    -2.4623     0.8334 C.3     
  14 C14            6.2106    -1.5514     0.8257 C.3     
  15 C15            7.4233    -2.3100     0.2828 C.3     
  16 C16            6.4955    -1.0263     2.2343 C.3     
  17 C17            4.3908    -2.5671     2.2472 C.3     
  18 C18            5.3185    -3.8507     0.2957 C.3     
  19 C19           -1.2139     2.2406     0.0202 C.3     
  20 C20           -1.8536     2.2368    -1.3707 C.3     
  21 C21           -3.1367     3.0727    -1.3363 C.3     
  22 C22           -4.0731     2.5069    -0.2642 C.3     
  23 C23           -3.3477     2.5003     1.0839 C.3     
  24 O24           -2.1482     1.7314     0.9741 O.3     
  25 H25            1.5453    -1.4607    -0.0200 H       
  26 H26            5.1283     2.2284    -0.0345 H       
  27 H27            3.6834     4.2142    -0.0105 H       
  28 H28            1.2437     3.9843     0.0127 H       
  29 H29            8.2789    -1.6369     0.2296 H       
  30 H30            7.6572    -3.1432     0.9455 H       
  31 H31            7.1977    -2.6904    -0.7134 H       
  32 H32            5.6169    -0.5031     2.6117 H       
  33 H33            6.7314    -1.8622     2.8929 H       
  34 H34            7.3413    -0.3395     2.2018 H       
  35 H35            3.4802    -3.1659     2.2255 H       
  36 H36            5.1216    -3.0407     2.9027 H       
  37 H37            4.1606    -1.5692     2.6206 H       
  38 H38            5.7413    -3.7565    -0.7045 H       
  39 H39            6.0473    -4.3216     0.9554 H       
  40 H40            4.4179    -4.4632     0.2532 H       
  41 H41           -0.9374     3.2598     0.2903 H       
  42 H42           -1.1586     2.6659    -2.0924 H       
  43 H43           -2.0934     1.2132    -1.6585 H       
  44 H44           -2.8915     4.1075    -1.0969 H       
  45 H45           -3.6270     3.0284    -2.3088 H       
  46 H46           -4.9654     3.1291    -0.1946 H       
  47 H47           -4.3577     1.4887    -0.5297 H       
  48 H48           -3.0992     3.5228     1.3681 H       
  49 H49           -3.9942     2.0589     1.8425 H       
@<TRIPOS>BOND
   1    1    2 1
   2    1    9 1
   3    1   19 1
   4    2    3 2
   5    3    4 1
   6    3   25 1
   7    4    5 ar
   8    4    9 ar
   9    5    6 ar
  10    5   11 1
  11    6    7 ar
  12    6   26 1
  13    7    8 ar
  14    7   27 1
  15    8    9 ar
  16    8   28 1
  17   10   11 1
  18   10   14 1
  19   11   12 1
  20   12   13 1
  21   13   14 1
  22   13   17 1
  23   13   18 1
  24   14   15 1
  25   14   16 1
  26   15   29 1
  27   15   30 1
  28   15   31 1
  29   16   32 1
  30   16   33 1
  31   16   34 1
  32   17   35 1
  33   17   36 1
  34   17   37 1
  35   18   38 1
  36   18   39 1
  37   18   40 1
  38   19   20 1
  39   19   24 1
  40   19   41 1
  41   20   21 1
  42   20   42 1
  43   20   43 1
  44   21   22 1
  45   21   44 1
  46   21   45 1
  47   22   23 1
  48   22   46 1
  49   22   47 1
  50   23   24 1
  51   23   48 1
  52   23   49 1

#	End of record

