#	Name: ASD05430337
#	Creating user name:	WinNT
#	Creation time:	15. 06. 2019 21:00

#	Modifying user name:	WinNT
#	Modification time:	15. 06. 2019 21:00

#	Program:	/corina/corina34_cracker 3.40 0067  02.08.2006

@<TRIPOS>MOLECULE
ASD05430337
  56   59    0    0    0
SMALL
NO_CHARGES


@<TRIPOS>ATOM
   1 C1            -0.0168     1.3904     0.0097 C.ar    
   2 C2             0.0021    -0.0041     0.0020 C.ar    
   3 C3            -1.1894    -0.7182     0.0100 C.ar    
   4 C4            -2.3954    -0.0524     0.0252 C.ar    
   5 C5            -2.4221     1.3461     0.0329 C.ar    
   6 C6            -1.2227     2.0650     0.0306 C.ar    
   7 C7            -4.8632     1.3656     0.0565 C.2     
   8 C8            -3.7095     2.0592     0.0491 C.2     
   9 O9            -7.5523     0.0279     0.0751 O.3     
  10 N10           -7.3601     1.4308     0.0808 N.pl3   
  11 C11           -6.1473     2.0769     0.0726 C.2     
  12 C12           -8.4257     2.4468     0.0901 C.3     
  13 C13           -7.6490     3.7782     0.0929 C.3     
  14 N14           -6.2375     3.3706     0.0804 N.2     
  15 C15           -9.2794     2.3325    -1.1465 C.ar    
  16 C16           -9.2816     2.3191     1.3518 C.3     
  17 C17          -10.3412     3.1974    -1.3351 C.ar    
  18 C18           -8.9965     1.3666    -2.0942 C.ar    
  19 C19           -9.7782     1.2614    -3.2290 C.ar    
  20 C20          -10.8452     2.1236    -3.4164 C.ar    
  21 C21          -11.1245     3.0938    -2.4689 C.ar    
  22 F22          -11.6100     2.0217    -4.5254 F       
  23 O23            1.1512     2.0862     0.0023 O.3     
  24 C24            1.0570     3.5120     0.0108 C.3     
  25 C25            1.6010    -1.7066     0.8210 C.2     
  26 N26            1.2256    -0.6863    -0.0143 N.pl3   
  27 C27            2.8465    -2.0688     0.4589 C.2     
  28 N28            3.2259    -1.2944    -0.5684 N.2     
  29 C29            2.2639    -0.4623    -0.8612 C.2     
  30 C30            3.6714    -3.1563     1.0976 C.3     
  31 C31           -7.6192    -0.5548     1.3782 C.3     
  32 H32           -1.1703    -1.7981     0.0041 H       
  33 H33           -3.3202    -0.6102     0.0306 H       
  34 H34           -1.2389     3.1448     0.0369 H       
  35 H35           -4.8440     0.2858     0.0505 H       
  36 H36           -3.7287     3.1391     0.0551 H       
  37 H37           -7.8836     4.3588    -0.7992 H       
  38 H38           -7.8759     4.3505     0.9925 H       
  39 H39           -8.6541     2.4579     2.2322 H       
  40 H40          -10.0631     3.0789     1.3392 H       
  41 H41           -9.7375     1.3295     1.3830 H       
  42 H42          -10.5590     3.9541    -0.5959 H       
  43 H43           -8.1642     0.6941    -1.9478 H       
  44 H44           -9.5566     0.5071    -3.9696 H       
  45 H45          -11.9567     3.7667    -2.6139 H       
  46 H46            0.5289     3.8359     0.9076 H       
  47 H47            2.0585     3.9423     0.0036 H       
  48 H48            0.5119     3.8455    -0.8722 H       
  49 H49            1.0127    -2.1346     1.6191 H       
  50 H50            2.2890     0.2799    -1.6453 H       
  51 H51            3.4795    -4.1025     0.5917 H       
  52 H52            4.7291    -2.9070     1.0131 H       
  53 H53            3.4022    -3.2459     2.1500 H       
  54 H54           -7.7674    -1.6309     1.2878 H       
  55 H55           -6.6888    -0.3598     1.9116 H       
  56 H56           -8.4523    -0.1183     1.9291 H       
@<TRIPOS>BOND
   1    1    2 ar
   2    1   23 1
   3    1    6 ar
   4    2    3 ar
   5    2   26 1
   6    3    4 ar
   7    3   32 1
   8    4    5 ar
   9    4   33 1
  10    5    6 ar
  11    5    8 1
  12    6   34 1
  13    7    8 2
  14    7   11 1
  15    7   35 1
  16    8   36 1
  17    9   10 1
  18    9   31 1
  19   10   11 1
  20   10   12 1
  21   11   14 2
  22   12   13 1
  23   12   15 1
  24   12   16 1
  25   13   14 1
  26   13   37 1
  27   13   38 1
  28   15   17 ar
  29   15   18 ar
  30   16   39 1
  31   16   40 1
  32   16   41 1
  33   17   21 ar
  34   17   42 1
  35   18   19 ar
  36   18   43 1
  37   19   20 ar
  38   19   44 1
  39   20   21 ar
  40   20   22 1
  41   21   45 1
  42   23   24 1
  43   24   46 1
  44   24   47 1
  45   24   48 1
  46   25   26 1
  47   25   27 2
  48   25   49 1
  49   26   29 1
  50   27   28 1
  51   27   30 1
  52   28   29 2
  53   29   50 1
  54   30   51 1
  55   30   52 1
  56   30   53 1
  57   31   54 1
  58   31   55 1
  59   31   56 1

#	End of record

