#	Name: ASD01840036
#	Creating user name:	WinNT
#	Creation time:	15. 06. 2019 19:37

#	Modifying user name:	WinNT
#	Modification time:	15. 06. 2019 19:37

#	Program:	/corina/corina34_cracker 3.40 0067  02.08.2006

@<TRIPOS>MOLECULE
ASD01840036
  34   36    0    0    0
SMALL
NO_CHARGES


@<TRIPOS>ATOM
   1 C1             0.6476     1.8119    -1.3422 C.ar    
   2 C2             0.9937     0.6930    -2.0668 C.ar    
   3 C3             2.2698     0.1625    -1.9339 C.ar    
   4 N4             3.1508     0.7095    -1.1296 N.ar    
   5 C5             2.8742     1.7950    -0.4013 C.ar    
   6 C6             1.6095     2.3882    -0.4804 C.ar    
   7 S7             3.8904     2.6841     0.7271 S.3     
   8 C8             2.6206     3.8380     1.0829 C.2     
   9 C9             1.4918     3.5535     0.3790 C.2     
  10 C10           -0.7278     2.4143    -1.4699 C.3     
  11 C11            2.6494    -1.0621    -2.7259 C.3     
  12 N12            0.3339     4.3087     0.4721 N.pl3   
  13 C13            2.7514     4.9206     1.9836 C.2     
  14 C14            3.9756     5.0573     2.8031 C.ar    
  15 O15            1.8560     5.7405     2.0847 O.2     
  16 C16            4.6660     3.9207     3.2267 C.ar    
  17 C17            5.8071     4.0551     3.9902 C.ar    
  18 C18            6.2673     5.3133     4.3365 C.ar    
  19 C19            5.5875     6.4441     3.9197 C.ar    
  20 C20            4.4483     6.3237     3.1510 C.ar    
  21 Cl21          -0.1556    -0.0478    -3.1364 Cl      
  22 H22           -1.3647     2.0390    -0.6689 H       
  23 H23           -0.6571     3.4997    -1.3995 H       
  24 H24           -1.1566     2.1399    -2.4337 H       
  25 H25            3.0697    -0.7587    -3.6848 H       
  26 H26            3.3893    -1.6388    -2.1709 H       
  27 H27            1.7636    -1.6745    -2.8949 H       
  28 H28           -0.5206     3.9181     0.2308 H       
  29 H29            0.3777     5.2279     0.7786 H       
  30 H30            4.3075     2.9381     2.9577 H       
  31 H31            6.3423     3.1764     4.3187 H       
  32 H32            7.1607     5.4131     4.9349 H       
  33 H33            5.9516     7.4233     4.1936 H       
  34 H34            3.9210     7.2072     2.8228 H       
@<TRIPOS>BOND
   1    1    2 ar
   2    1    6 ar
   3    1   10 1
   4    2    3 ar
   5    2   21 1
   6    3    4 ar
   7    3   11 1
   8    4    5 ar
   9    5    7 1
  10    5    6 ar
  11    6    9 1
  12    7    8 1
  13    8    9 2
  14    8   13 1
  15    9   12 1
  16   10   22 1
  17   10   23 1
  18   10   24 1
  19   11   25 1
  20   11   26 1
  21   11   27 1
  22   12   28 1
  23   12   29 1
  24   13   14 1
  25   13   15 2
  26   14   16 ar
  27   14   20 ar
  28   16   17 ar
  29   16   30 1
  30   17   18 ar
  31   17   31 1
  32   18   19 ar
  33   18   32 1
  34   19   20 ar
  35   19   33 1
  36   20   34 1

#	End of record

