#	Name: ASD00310123
#	Creating user name:	WinNT
#	Creation time:	15. 06. 2019 18:33

#	Modifying user name:	WinNT
#	Modification time:	15. 06. 2019 18:33

#	Program:	/corina/corina34_cracker 3.40 0067  02.08.2006

@<TRIPOS>MOLECULE
ASD00310123
  33   35    0    0    0
SMALL
NO_CHARGES


@<TRIPOS>ATOM
   1 N1            -0.0165     1.3649     0.0095 N.pl3   
   2 C2             0.0021    -0.0041     0.0020 C.2     
   3 C3             1.2692    -0.4449    -0.0124 C.2     
   4 C4             2.1329     0.7396    -0.0143 C.ar    
   5 C5             3.5119     0.9302    -0.0269 C.ar    
   6 C6             4.0228     2.2232    -0.0252 C.ar    
   7 C7             3.1532     3.3222    -0.0110 C.ar    
   8 C8             1.8009     3.1393     0.0018 C.ar    
   9 C9             1.2678     1.8519    -0.0001 C.ar    
  10 O10            6.1241     3.7697    -0.0373 O.3     
  11 B11            5.5759     2.4525    -0.0387 Du      
  12 O12            6.4813     1.3500    -0.0523 O.3     
  13 C13            7.5101     1.4687     0.9380 C.3     
  14 C14            8.1898     2.8332     0.7903 C.3     
  15 C15            7.1452     3.9412     0.9534 C.3     
  16 C16            9.2677     2.9856     1.8654 C.3     
  17 C17            8.8316     2.9365    -0.5947 C.3     
  18 Cl18           3.8027     4.9321    -0.0090 Cl      
  19 H19           -0.8185     1.9105     0.0165 H       
  20 H20           -0.8739    -0.6358     0.0073 H       
  21 H21            1.5913    -1.4757    -0.0207 H       
  22 H22            4.1791     0.0810    -0.0374 H       
  23 H23            1.1420     3.9949     0.0130 H       
  24 H24            7.0708     1.3859     1.9321 H       
  25 H25            8.2461     0.6774     0.7960 H       
  26 H26            7.6209     4.9131     0.8223 H       
  27 H27            6.7024     3.8815     1.9476 H       
  28 H28           10.0100     2.1958     1.7503 H       
  29 H29            9.7512     3.9568     1.7601 H       
  30 H30            8.8097     2.9129     2.8519 H       
  31 H31            8.0631     2.8289    -1.3602 H       
  32 H32            9.3152     3.9077    -0.6996 H       
  33 H33            9.5736     2.1467    -0.7112 H       
@<TRIPOS>BOND
   1    1    2 1
   2    1    9 1
   3    1   19 1
   4    2    3 2
   5    2   20 1
   6    3    4 1
   7    3   21 1
   8    4    5 ar
   9    4    9 ar
  10    5    6 ar
  11    5   22 1
  12    6    7 ar
  13    6   11 1
  14    7    8 ar
  15    7   18 1
  16    8    9 ar
  17    8   23 1
  18   10   11 1
  19   10   15 1
  20   11   12 1
  21   12   13 1
  22   13   14 1
  23   13   24 1
  24   13   25 1
  25   14   15 1
  26   14   16 1
  27   14   17 1
  28   15   26 1
  29   15   27 1
  30   16   28 1
  31   16   29 1
  32   16   30 1
  33   17   31 1
  34   17   32 1
  35   17   33 1

#	End of record

