#	Name: ASD07931646
#	Creating user name:	WinNT
#	Creation time:	15. 06. 2019 21:13

#	Modifying user name:	WinNT
#	Modification time:	15. 06. 2019 21:13

#	Program:	/corina/corina34_cracker 3.40 0067  02.08.2006

@<TRIPOS>MOLECULE
ASD07931646
  48   52    0    0    0
SMALL
NO_CHARGES


@<TRIPOS>ATOM
   1 N1             0.0780     1.5605     0.0383 N.pl3   
   2 C2             0.3172     0.2401    -0.0107 C.2     
   3 C3             1.5943    -0.2628    -0.0022 C.2     
   4 C4             2.7409     0.6722     0.0627 C.2     
   5 C5             2.4333     2.1132     0.1147 C.ar    
   6 C6             3.4455     3.0728     0.1771 C.ar    
   7 C7             3.1119     4.4162     0.2241 C.ar    
   8 C8             1.7825     4.8031     0.2097 C.ar    
   9 C9             0.7752     3.8624     0.1487 C.ar    
  10 C10            1.0858     2.5075     0.1005 C.ar    
  11 N11            3.5283    -1.4088    -0.0051 N.am    
  12 N12            3.8276    -0.0456     0.0580 N.2     
  13 C13            2.1911    -1.5942    -0.0434 C.2     
  14 O14            1.6005    -2.6605    -0.1006 O.2     
  15 C15            4.4788    -2.4359    -0.0257 C.ar    
  16 C16            5.4803    -2.4384    -0.9885 C.ar    
  17 C17            6.4168    -3.4530    -1.0057 C.ar    
  18 C18            6.3582    -4.4663    -0.0661 C.ar    
  19 C19            5.3625    -4.4670     0.8932 C.ar    
  20 C20            4.4263    -3.4518     0.9198 C.ar    
  21 C21            5.5443    -1.3353    -2.0132 C.3     
  22 C22           -1.3129     2.0202     0.0191 C.3     
  23 C23           -1.7065     2.3712    -1.3926 C.ar    
  24 C24           -2.1614     1.3851    -2.2492 C.ar    
  25 C25           -2.5225     1.7075    -3.5445 C.ar    
  26 C26           -2.4287     3.0153    -3.9829 C.ar    
  27 C27           -1.9736     4.0003    -3.1267 C.ar    
  28 C28           -1.6184     3.6793    -1.8296 C.ar    
  29 I29           -2.3028    -0.5967    -1.5847 I       
  30 O30            4.7490     2.6912     0.1920 O.3     
  31 H31           -0.5171    -0.4442    -0.0576 H       
  32 H32            3.8902     5.1634     0.2725 H       
  33 H33            1.5313     5.8529     0.2471 H       
  34 H34           -0.2573     4.1788     0.1385 H       
  35 H35            7.1956    -3.4555    -1.7539 H       
  36 H36            7.0917    -5.2588    -0.0820 H       
  37 H37            5.3191    -5.2601     1.6250 H       
  38 H38            3.6514    -3.4506     1.6721 H       
  39 H39            6.1634    -0.5223    -1.6337 H       
  40 H40            5.9772    -1.7213    -2.9361 H       
  41 H41            4.5386    -0.9643    -2.2110 H       
  42 H42           -1.9626     1.2279     0.3911 H       
  43 H43           -1.4134     2.9005     0.6539 H       
  44 H44           -2.8774     0.9377    -4.2137 H       
  45 H45           -2.7106     3.2672    -4.9945 H       
  46 H46           -1.9001     5.0218    -3.4695 H       
  47 H47           -1.2674     4.4500    -1.1594 H       
  48 H48            5.1470     2.6165    -0.6861 H       
@<TRIPOS>BOND
   1    1    2 1
   2    1   10 1
   3    1   22 1
   4    2    3 2
   5    2   31 1
   6    3    4 1
   7    3   13 1
   8    4    5 1
   9    4   12 2
  10    5    6 ar
  11    5   10 ar
  12    6    7 ar
  13    6   30 1
  14    7    8 ar
  15    7   32 1
  16    8    9 ar
  17    8   33 1
  18    9   10 ar
  19    9   34 1
  20   11   12 1
  21   11   13 am
  22   11   15 1
  23   13   14 2
  24   15   16 ar
  25   15   20 ar
  26   16   17 ar
  27   16   21 1
  28   17   18 ar
  29   17   35 1
  30   18   19 ar
  31   18   36 1
  32   19   20 ar
  33   19   37 1
  34   20   38 1
  35   21   39 1
  36   21   40 1
  37   21   41 1
  38   22   23 1
  39   22   42 1
  40   22   43 1
  41   23   24 ar
  42   23   28 ar
  43   24   25 ar
  44   24   29 1
  45   25   26 ar
  46   25   44 1
  47   26   27 ar
  48   26   45 1
  49   27   28 ar
  50   27   46 1
  51   28   47 1
  52   30   48 1

#	End of record

