#	Name: ASD08150238
#	Creating user name:	WinNT
#	Creation time:	15. 06. 2019 21:15

#	Modifying user name:	WinNT
#	Modification time:	15. 06. 2019 21:15

#	Program:	/corina/corina34_cracker 3.40 0067  02.08.2006

@<TRIPOS>MOLECULE
ASD08150238
  52   56    0    0    0
SMALL
NO_CHARGES


@<TRIPOS>ATOM
   1 N1            -0.0157     1.2952    -0.0517 N.2     
   2 C2             0.0018    -0.0026    -0.0878 C.2     
   3 N3             1.1485    -0.7346    -0.1052 N.am    
   4 C4             2.3559    -0.1234    -0.0850 C.2     
   5 C5             2.3702     1.3460    -0.0441 C.ar    
   6 C6             3.5601     2.0709    -0.0203 C.ar    
   7 C7             3.5158     3.4472     0.0183 C.ar    
   8 C8             2.2979     4.1146     0.0337 C.ar    
   9 C9             1.1111     3.4173     0.0107 C.ar    
  10 C10            1.1296     2.0215    -0.0285 C.ar    
  11 O11            3.3900    -0.7656    -0.0998 O.2     
  12 C12            1.0789    -2.1329    -0.1439 C.ar    
  13 C13            1.0414    -2.8608     1.0384 C.ar    
  14 C14            0.9415    -4.8953    -0.2203 C.ar    
  15 C15            1.0415    -2.7941    -1.3642 C.ar    
  16 C16            0.9729    -4.2393     0.9969 C.ar    
  17 C17            0.9729    -4.1733    -1.3990 C.ar    
  18 C18            1.0761    -2.1468     2.3651 C.3     
  19 C19           -1.3149    -0.7353    -0.1111 C.3     
  20 S20           -2.6721     0.4618    -0.0808 S.3     
  21 N21           -5.9130     1.1001    -0.0715 N.2     
  22 C22           -7.2102     1.0006    -0.0781 C.2     
  23 N23           -7.5761    -0.3134    -0.1153 N.pl3   
  24 C24           -6.4253    -1.0602    -0.1324 C.ar    
  25 N25           -6.1531    -2.3608    -0.1679 N.ar    
  26 C26           -4.8996    -2.7869    -0.1766 C.ar    
  27 N27           -3.8678    -1.9525    -0.1506 N.ar    
  28 C28           -4.0496    -0.6365    -0.1144 C.ar    
  29 C29           -5.3651    -0.1393    -0.1040 C.ar    
  30 S30           -4.5906    -4.5209    -0.2241 S.3     
  31 C31           -2.7806    -4.5179    -0.2193 C.3     
  32 C32            4.8858     1.3543    -0.0362 C.3     
  33 H33            4.4361     4.0122     0.0372 H       
  34 H34            2.2816     5.1940     0.0644 H       
  35 H35            0.1701     3.9473     0.0234 H       
  36 H36            0.8882    -5.9736    -0.2501 H       
  37 H37            1.0656    -2.2306    -2.2852 H       
  38 H38            0.9440    -4.8059     1.9159 H       
  39 H39            0.9487    -4.6884    -2.3479 H       
  40 H40            0.0580    -1.9233     2.6841 H       
  41 H41            1.5580    -2.7829     3.1075 H       
  42 H42            1.6372    -1.2179     2.2633 H       
  43 H43           -1.3804    -1.3360    -1.0183 H       
  44 H44           -1.3844    -1.3855     0.7610 H       
  45 H45           -7.8959     1.8347    -0.0569 H       
  46 H46           -8.4834    -0.6565    -0.1274 H       
  47 H47           -2.4159    -3.9788    -1.0937 H       
  48 H48           -2.4205    -4.0284     0.6856 H       
  49 H49           -2.4155    -5.5445    -0.2470 H       
  50 H50            5.1535     1.1083    -1.0638 H       
  51 H51            5.6522     1.9986     0.3945 H       
  52 H52            4.8105     0.4379     0.5490 H       
@<TRIPOS>BOND
   1    1    2 2
   2    1   10 1
   3    2    3 1
   4    2   19 1
   5    3    4 am
   6    3   12 1
   7    4    5 1
   8    4   11 2
   9    5    6 ar
  10    5   10 ar
  11    6    7 ar
  12    6   32 1
  13    7    8 ar
  14    7   33 1
  15    8    9 ar
  16    8   34 1
  17    9   10 ar
  18    9   35 1
  19   12   13 ar
  20   12   15 ar
  21   13   16 ar
  22   13   18 1
  23   14   16 ar
  24   14   17 ar
  25   14   36 1
  26   15   17 ar
  27   15   37 1
  28   16   38 1
  29   17   39 1
  30   18   40 1
  31   18   41 1
  32   18   42 1
  33   19   20 1
  34   19   43 1
  35   19   44 1
  36   20   28 1
  37   21   22 2
  38   21   29 1
  39   22   23 1
  40   22   45 1
  41   23   24 1
  42   23   46 1
  43   24   25 ar
  44   24   29 ar
  45   25   26 ar
  46   26   27 ar
  47   26   30 1
  48   27   28 ar
  49   28   29 ar
  50   30   31 1
  51   31   47 1
  52   31   48 1
  53   31   49 1
  54   32   50 1
  55   32   51 1
  56   32   52 1

#	End of record

