#	Name: ASD05940013
#	Creating user name:	WinNT
#	Creation time:	15. 06. 2019 21:04

#	Modifying user name:	WinNT
#	Modification time:	15. 06. 2019 21:04

#	Program:	/corina/corina34_cracker 3.40 0067  02.08.2006

@<TRIPOS>MOLECULE
ASD05940013
  63   66    0    0    0
SMALL
NO_CHARGES


@<TRIPOS>ATOM
   1 N1            -0.0159     1.3181     0.0093 N.ar    
   2 C2             0.0021    -0.0041     0.0020 C.ar    
   3 N3             1.1319    -0.6930    -0.0101 N.ar    
   4 C4             2.3066    -0.0681    -0.0158 C.ar    
   5 C5             2.3274     1.3257    -0.0126 C.ar    
   6 C6             1.1197     2.0168     0.0022 C.ar    
   7 N7             3.4912    -0.7843    -0.0194 N.3     
   8 C8             4.5325    -0.1239    -0.8126 C.3     
   9 C9             4.6626     1.3202    -0.4024 C.2     
  10 N10            3.5574     2.0048    -0.0283 N.am    
  11 N11            1.0976     3.4049     0.0085 N.pl3   
  12 O12           -1.1750    -0.6756     0.0076 O.3     
  13 C13            3.2722    -2.1617    -0.4807 C.3     
  14 O14            5.7473     1.8634    -0.4080 O.2     
  15 C15            2.8581    -2.1464    -1.9296 C.ar    
  16 C16            3.8169    -2.2118    -2.9232 C.ar    
  17 C17            3.4371    -2.1977    -4.2522 C.ar    
  18 C18            2.0984    -2.1186    -4.5877 C.ar    
  19 C19            1.1395    -2.0541    -3.5941 C.ar    
  20 C20            1.5191    -2.0726    -2.2650 C.ar    
  21 C21            0.8344    -3.4954    -7.8313 C.3     
  22 N22            1.4661    -3.4793    -6.4991 N.3     
  23 C23            0.6009    -4.2232    -5.5588 C.3     
  24 C24           -0.2195    -5.1858    -6.4532 C.3     
  25 C25           -0.4709    -4.3095    -7.7085 C.3     
  26 C26           -2.3694     0.1089     0.0211 C.3     
  27 C27           -3.5876    -0.8168     0.0256 C.3     
  28 C28           -4.8663     0.0231     0.0401 C.3     
  29 C29           -6.0845    -0.9026     0.0446 C.3     
  30 C30            5.8680    -0.8364    -0.5896 C.3     
  31 C31            1.6844    -2.1022    -6.0366 C.3     
  32 H32            4.2697    -0.1768    -1.8692 H       
  33 H33            3.6126     2.9403     0.2223 H       
  34 H34            1.9298     3.9032     0.0026 H       
  35 H35            0.2500     3.8765     0.0188 H       
  36 H36            4.1947    -2.7322    -0.3724 H       
  37 H37            2.4867    -2.6244     0.1168 H       
  38 H38            4.8628    -2.2736    -2.6611 H       
  39 H39            4.1862    -2.2481    -5.0285 H       
  40 H40            0.0936    -1.9919    -3.8562 H       
  41 H41            0.7699    -2.0222    -1.4887 H       
  42 H42            0.6079    -2.4769    -8.1466 H       
  43 H43            1.5007    -3.9696    -8.5519 H       
  44 H44            1.2075    -4.7875    -4.8505 H       
  45 H45           -0.0622    -3.5382    -5.0305 H       
  46 H46            0.3605    -6.0733    -6.7063 H       
  47 H47           -1.1592    -5.4591    -5.9733 H       
  48 H48           -1.3238    -3.6490    -7.5529 H       
  49 H49           -0.6206    -4.9329    -8.5900 H       
  50 H50           -2.3840     0.7330     0.9146 H       
  51 H51           -2.3979     0.7426    -0.8653 H       
  52 H52           -3.5729    -1.4409    -0.8679 H       
  53 H53           -3.5591    -1.4505     0.9120 H       
  54 H54           -4.8810     0.6473     0.9336 H       
  55 H55           -4.8948     0.6569    -0.8463 H       
  56 H56           -6.0698    -1.5267    -0.8489 H       
  57 H57           -6.0560    -1.5363     0.9309 H       
  58 H58           -6.9955    -0.3042     0.0549 H       
  59 H59            5.7801    -1.8780    -0.8985 H       
  60 H60            6.6438    -0.3470    -1.1785 H       
  61 H61            6.1315    -0.7918     0.4671 H       
  62 H62            0.7616    -1.5322    -6.1444 H       
  63 H63            2.4697    -1.6386    -6.6337 H       
@<TRIPOS>BOND
   1    1    2 ar
   2    1    6 ar
   3    2    3 ar
   4    2   12 1
   5    3    4 ar
   6    4    5 ar
   7    4    7 1
   8    5    6 ar
   9    5   10 1
  10    6   11 1
  11    7    8 1
  12    7   13 1
  13    8    9 1
  14    8   30 1
  15    8   32 1
  16    9   10 am
  17    9   14 2
  18   10   33 1
  19   11   34 1
  20   11   35 1
  21   12   26 1
  22   13   15 1
  23   13   36 1
  24   13   37 1
  25   15   16 ar
  26   15   20 ar
  27   16   17 ar
  28   16   38 1
  29   17   18 ar
  30   17   39 1
  31   18   19 ar
  32   18   31 1
  33   19   20 ar
  34   19   40 1
  35   20   41 1
  36   21   22 1
  37   21   25 1
  38   21   42 1
  39   21   43 1
  40   22   23 1
  41   22   31 1
  42   23   24 1
  43   23   44 1
  44   23   45 1
  45   24   25 1
  46   24   46 1
  47   24   47 1
  48   25   48 1
  49   25   49 1
  50   26   27 1
  51   26   50 1
  52   26   51 1
  53   27   28 1
  54   27   52 1
  55   27   53 1
  56   28   29 1
  57   28   54 1
  58   28   55 1
  59   29   56 1
  60   29   57 1
  61   29   58 1
  62   30   59 1
  63   30   60 1
  64   30   61 1
  65   31   62 1
  66   31   63 1

#	End of record

