#	Name: ASD02508496
#	Creating user name:	WinNT
#	Creation time:	15. 06. 2019 20:24

#	Modifying user name:	WinNT
#	Modification time:	15. 06. 2019 20:24

#	Program:	/corina/corina34_cracker 3.40 0067  02.08.2006

@<TRIPOS>MOLECULE
ASD02508496
  30   32    0    0    0
SMALL
NO_CHARGES


@<TRIPOS>ATOM
   1 N1             1.1480     1.7840     0.1063 N.2     
   2 C2             2.0050     0.7671     0.2822 C.2     
   3 C3             1.3433    -0.3843     0.0608 C.2     
   4 N4             0.0524    -0.0457    -0.2568 N.pl3   
   5 C5            -0.0246     1.3109    -0.2167 C.2     
   6 C6            -0.9843    -0.9263    -0.5633 C.2     
   7 S7             2.0079    -2.0132     0.1592 S.o2    
   8 N8             2.1133    -2.5938    -1.3880 N.am    
   9 C9             2.9798    -1.9910    -2.3027 C.ar    
  10 C10            3.0365    -0.6064    -2.3991 C.ar    
  11 O11            3.3423    -1.8745     0.6276 O.2     
  12 O12            1.0308    -2.8060     0.8196 O.2     
  13 C13            3.7908    -2.7745    -3.1136 C.ar    
  14 C14            4.6473    -2.1758    -4.0169 C.ar    
  15 C15            4.6985    -0.7978    -4.1147 C.ar    
  16 C16            3.8954    -0.0132    -3.3049 C.ar    
  17 Cl17           3.9631     1.7168    -3.4311 Cl      
  18 N18           -2.2240    -0.5858    -0.7239 N.2     
  19 C19           -3.0765    -1.5502    -1.0119 C.2     
  20 C20           -2.5307    -2.7656    -1.0990 C.2     
  21 S21           -0.8033    -2.6113    -0.7891 S.3     
  22 H22            3.0464     0.8567     0.5542 H       
  23 H23           -0.9080     1.8987    -0.4184 H       
  24 H24            1.5733    -3.3526    -1.6592 H       
  25 H25            2.4099     0.0058    -1.7674 H       
  26 H26            3.7521    -3.8512    -3.0376 H       
  27 H27            5.2779    -2.7850    -4.6475 H       
  28 H28            5.3696    -0.3322    -4.8213 H       
  29 H29           -4.1306    -1.3713    -1.1642 H       
  30 H30           -3.0556    -3.6823    -1.3239 H       
@<TRIPOS>BOND
   1    1    2 1
   2    1    5 2
   3    2    3 2
   4    2   22 1
   5    3    4 1
   6    3    7 1
   7    4    5 1
   8    4    6 1
   9    5   23 1
  10    6   18 2
  11    6   21 1
  12    7    8 am
  13    7   11 2
  14    7   12 2
  15    8    9 1
  16    8   24 1
  17    9   13 ar
  18    9   10 ar
  19   10   16 ar
  20   10   25 1
  21   13   14 ar
  22   13   26 1
  23   14   15 ar
  24   14   27 1
  25   15   16 ar
  26   15   28 1
  27   16   17 1
  28   18   19 1
  29   19   20 2
  30   19   29 1
  31   20   21 1
  32   20   30 1

#	End of record

