#	Name: ASD01882817
#	Creating user name:	WinNT
#	Creation time:	15. 06. 2019 19:45

#	Modifying user name:	WinNT
#	Modification time:	15. 06. 2019 19:45

#	Program:	/corina/corina34_cracker 3.40 0067  02.08.2006

@<TRIPOS>MOLECULE
ASD01882817
  33   35    0    0    0
SMALL
NO_CHARGES


@<TRIPOS>ATOM
   1 N1            -0.0165     1.3692     0.0096 N.pl3   
   2 O2             1.1412    -0.7243    -0.0127 O.3     
   3 C3             0.0021    -0.0041     0.0020 C.2     
   4 N4            -1.0753    -0.7270     0.0089 N.2     
   5 C5            -0.6823    -2.1496     0.0076 C.3     
   6 C6             0.8153    -2.0697     0.3922 C.3     
   7 C7             1.6390    -3.0940    -0.3909 C.3     
   8 O8             3.0178    -2.9666    -0.0377 O.3     
   9 C9             6.8363    -6.3386    -2.4241 C.3     
  10 C10            7.9855    -6.1080    -1.4199 C.3     
  11 C11            7.6370    -4.7253    -0.8293 C.3     
  12 C12            6.1354    -4.5997    -0.9741 C.ar    
  13 C13            5.2441    -3.7417    -0.3534 C.ar    
  14 C14            3.8916    -3.8096    -0.6484 C.ar    
  15 C15            3.4320    -4.7409    -1.5685 C.ar    
  16 C16            4.3231    -5.5951    -2.1857 C.ar    
  17 C17            5.6751    -5.5269    -1.8906 C.ar    
  18 H18            0.8168     1.8655     0.0043 H       
  19 H19           -0.8631     1.8427     0.0162 H       
  20 H20           -1.2463    -2.7101     0.7532 H       
  21 H21           -0.8071    -2.5872    -0.9829 H       
  22 H22            0.9511    -2.1991     1.4659 H       
  23 H23            1.2935    -4.0992    -0.1495 H       
  24 H24            1.5198    -2.9156    -1.4596 H       
  25 H25            7.1224    -5.9839    -3.4142 H       
  26 H26            6.5732    -7.3957    -2.4615 H       
  27 H27            7.9810    -6.8731    -0.6436 H       
  28 H28            8.9474    -6.0794    -1.9317 H       
  29 H29            7.9206    -4.6807     0.2222 H       
  30 H30            8.1383    -3.9369    -1.3908 H       
  31 H31            5.6035    -3.0174     0.3625 H       
  32 H32            2.3789    -4.7975    -1.8010 H       
  33 H33            3.9650    -6.3198    -2.9018 H       
@<TRIPOS>BOND
   1    1    3 1
   2    1   18 1
   3    1   19 1
   4    2    3 1
   5    2    6 1
   6    3    4 2
   7    4    5 1
   8    5    6 1
   9    5   20 1
  10    5   21 1
  11    6    7 1
  12    6   22 1
  13    7    8 1
  14    7   23 1
  15    7   24 1
  16    8   14 1
  17    9   10 1
  18    9   17 1
  19    9   25 1
  20    9   26 1
  21   10   11 1
  22   10   27 1
  23   10   28 1
  24   11   12 1
  25   11   29 1
  26   11   30 1
  27   12   13 ar
  28   12   17 ar
  29   13   14 ar
  30   13   31 1
  31   14   15 ar
  32   15   16 ar
  33   15   32 1
  34   16   17 ar
  35   16   33 1

#	End of record

