#	Name: ASD05430692
#	Creating user name:	WinNT
#	Creation time:	15. 06. 2019 21:00

#	Modifying user name:	WinNT
#	Modification time:	15. 06. 2019 21:00

#	Program:	/corina/corina34_cracker 3.40 0067  02.08.2006

@<TRIPOS>MOLECULE
ASD05430692
  29   29    0    0    0
SMALL
NO_CHARGES


@<TRIPOS>ATOM
   1 C1            -0.0167     1.3780     0.0096 C.ar    
   2 C2             0.0021    -0.0041     0.0020 C.ar    
   3 C3            -1.1852    -0.7127     0.0100 C.ar    
   4 C4            -2.4118     1.3448     0.0438 C.ar    
   5 C5            -1.2225     2.0532     0.0305 C.ar    
   6 C6             1.2782     2.1489     0.0014 C.3     
   7 C7            -2.3919    -0.0398     0.0251 C.ar    
   8 C8             2.0734     1.7968    -1.2574 C.3     
   9 C9             0.9786     3.6492     0.0123 C.3     
  10 C10            2.0973     1.7833     1.2409 C.3     
  11 F11           -3.5910     2.0037     0.0647 F       
  12 S12           -3.9458    -0.9679     0.0419 Du      
  13 F13           -3.3836    -1.9301    -1.1201 F       
  14 F14           -4.5079    -0.0057     1.2039 F       
  15 F15           -4.5505     0.0245    -1.0724 F       
  16 F16           -3.3411    -1.9602     1.1562 F       
  17 F17           -5.3280    -1.7934     0.0568 F       
  18 H18            0.9448    -0.5309    -0.0105 H       
  19 H19           -1.1693    -1.7926     0.0041 H       
  20 H20           -1.2368     3.1330     0.0455 H       
  21 H21            1.4899     2.0572    -2.1405 H       
  22 H22            3.0100     2.3543    -1.2634 H       
  23 H23            2.2868     0.7279    -1.2652 H       
  24 H24            0.4121     3.9001     0.9091 H       
  25 H25            1.9152     4.2068     0.0064 H       
  26 H26            0.3951     3.9097    -0.8708 H       
  27 H27            2.3107     0.7145     1.2331 H       
  28 H28            3.0338     2.3409     1.2350 H       
  29 H29            1.5307     2.0342     2.1377 H       
@<TRIPOS>BOND
   1    1    2 ar
   2    1    6 1
   3    1    5 ar
   4    2    3 ar
   5    2   18 1
   6    3    7 ar
   7    3   19 1
   8    4    5 ar
   9    4   11 1
  10    4    7 ar
  11    5   20 1
  12    6    8 1
  13    6    9 1
  14    6   10 1
  15    7   12 1
  16    8   21 1
  17    8   22 1
  18    8   23 1
  19    9   24 1
  20    9   25 1
  21    9   26 1
  22   10   27 1
  23   10   28 1
  24   10   29 1
  25   12   13 1
  26   12   14 1
  27   12   15 1
  28   12   16 1
  29   12   17 1

#	End of record

