#	Name: ASD01912433
#	Creating user name:	WinNT
#	Creation time:	15. 06. 2019 19:59

#	Modifying user name:	WinNT
#	Modification time:	15. 06. 2019 19:59

#	Program:	/corina/corina34_cracker 3.40 0067  02.08.2006

@<TRIPOS>MOLECULE
ASD01912433
  43   45    0    0    0
SMALL
NO_CHARGES


@<TRIPOS>ATOM
   1 C1            -0.3204     0.5433    -1.6324 C.1     
   2 C2            -0.1768     1.6985    -0.7984 C.ar    
   3 C3             1.0244     2.4292    -0.7862 C.ar    
   4 C4             1.1086     3.5433     0.0434 C.ar    
   5 C5             0.0236     3.8938     0.8202 C.ar    
   6 N6            -1.0950     3.1929     0.7928 N.ar    
   7 C7            -1.2354     2.1277     0.0194 C.ar    
   8 N8            -0.4343    -0.3731    -2.2940 N.1     
   9 O9             2.0727     2.0580    -1.5614 O.3     
  10 C10            3.2529     2.8600    -1.4839 C.3     
  11 N11           -2.4302     1.4290     0.0211 N.3     
  12 C12           -3.5731     2.3415     0.1509 C.3     
  13 C13           -4.8733     1.5672    -0.0943 C.3     
  14 C14           -4.8953     0.3714     0.8346 C.2     
  15 C15           -3.6607    -0.5039     0.8876 C.3     
  16 C16           -2.4376     0.4020     1.0705 C.3     
  17 C17           -5.9650     0.0988     1.5805 C.2     
  18 C18           -5.9600    -1.0383     2.4509 C.1     
  19 C19           -5.9560    -1.9706     3.1644 C.1     
  20 C20           -7.0157    -4.5204     5.6527 C.ar    
  21 C21           -7.0650    -3.4125     4.8277 C.ar    
  22 C22           -5.9510    -3.1077     4.0347 C.ar    
  23 C23           -4.8305    -3.9482     4.1169 C.ar    
  24 C24           -4.8685    -5.0316     4.9669 C.ar    
  25 N25           -5.9386    -5.2843     5.6980 N.ar    
  26 F26           -8.0807    -4.8230     6.4270 F       
  27 H27            2.0157     4.1284     0.0791 H       
  28 H28            0.0907     4.7585     1.4637 H       
  29 H29            3.0176     3.8824    -1.7796 H       
  30 H30            3.6290     2.8550    -0.4609 H       
  31 H31            4.0124     2.4542    -2.1522 H       
  32 H32           -3.5869     2.7665     1.1546 H       
  33 H33           -3.4835     3.1430    -0.5823 H       
  34 H34           -5.7287     2.2100     0.1135 H       
  35 H35           -4.9099     1.2290    -1.1299 H       
  36 H36           -3.7355    -1.1945     1.7276 H       
  37 H37           -3.5672    -1.0644    -0.0426 H       
  38 H38           -1.5288    -0.1957     1.0006 H       
  39 H39           -2.4834     0.8816     2.0482 H       
  40 H40           -6.8358     0.7355     1.5288 H       
  41 H41           -7.9483    -2.7920     4.7946 H       
  42 H42           -3.9513    -3.7489     3.5222 H       
  43 H43           -4.0105    -5.6839     5.0361 H       
@<TRIPOS>BOND
   1    1    2 1
   2    1    8 3
   3    2    3 ar
   4    2    7 ar
   5    3    4 ar
   6    3    9 1
   7    4    5 ar
   8    4   27 1
   9    5    6 ar
  10    5   28 1
  11    6    7 ar
  12    7   11 1
  13    9   10 1
  14   10   29 1
  15   10   30 1
  16   10   31 1
  17   11   12 1
  18   11   16 1
  19   12   13 1
  20   12   32 1
  21   12   33 1
  22   13   14 1
  23   13   34 1
  24   13   35 1
  25   14   15 1
  26   14   17 2
  27   15   16 1
  28   15   36 1
  29   15   37 1
  30   16   38 1
  31   16   39 1
  32   17   18 1
  33   17   40 1
  34   18   19 3
  35   19   22 1
  36   20   21 ar
  37   20   25 ar
  38   20   26 1
  39   21   22 ar
  40   21   41 1
  41   22   23 ar
  42   23   24 ar
  43   23   42 1
  44   24   25 ar
  45   24   43 1

#	End of record

