#	Name: ASD01910669
#	Creating user name:	WinNT
#	Creation time:	15. 06. 2019 19:56

#	Modifying user name:	WinNT
#	Modification time:	15. 06. 2019 19:56

#	Program:	/corina/corina34_cracker 3.40 0067  02.08.2006

@<TRIPOS>MOLECULE
ASD01910669
  35   37    0    0    0
SMALL
NO_CHARGES


@<TRIPOS>ATOM
   1 C1            -0.0167     1.3794     0.0096 C.ar    
   2 C2             0.0021    -0.0041     0.0020 C.ar    
   3 C3            -1.1829    -0.7192     0.0095 C.ar    
   4 C4            -2.3920    -0.0566     0.0246 C.ar    
   5 C5            -2.4190     1.3410     0.0328 C.ar    
   6 C6            -1.2184     2.0562     0.0305 C.ar    
   7 C7            -3.6707     2.0364     0.0480 C.1     
   8 C8            -4.6969     2.6066     0.0605 C.1     
   9 C9            -5.9486     3.3020     0.0756 C.ar    
  10 C10           -5.9706     4.7017     0.0838 C.ar    
  11 C11           -7.1643     5.3613     0.0981 C.ar    
  12 C12           -8.3632     4.6388     0.1039 C.ar    
  13 C13           -8.3438     3.2438     0.0964 C.ar    
  14 C14           -7.1484     2.5814     0.0765 C.ar    
  15 C15           -7.2143     6.8664     0.1083 C.3     
  16 C16           -8.4268     7.3515    -0.6829 C.3     
  17 N17           -9.6457     6.6830    -0.2357 N.am    
  18 C18           -9.6398     5.3819     0.1165 C.2     
  19 O19          -10.6721     4.8270     0.4401 O.2     
  20 C20            1.2791     2.1488     0.0014 C.3     
  21 F21            2.3534     1.2527    -0.0137 F       
  22 F22            1.3326     2.9600    -1.1371 F       
  23 F23            1.3544     2.9478     1.1473 F       
  24 H24            0.9461    -0.5285    -0.0102 H       
  25 H25           -1.1605    -1.7990     0.0031 H       
  26 H26           -3.3159    -0.6159     0.0297 H       
  27 H27           -1.2315     3.1361     0.0372 H       
  28 H28           -5.0448     5.2578     0.0792 H       
  29 H29           -9.2705     2.6891     0.1020 H       
  30 H30           -7.1296     1.5016     0.0702 H       
  31 H31           -7.2884     7.2192     1.1370 H       
  32 H32           -6.3049     7.2619    -0.3441 H       
  33 H33           -8.5373     8.4271    -0.5449 H       
  34 H34           -8.2710     7.1415    -1.7411 H       
  35 H35          -10.4748     7.1845    -0.1910 H       
@<TRIPOS>BOND
   1    1    2 ar
   2    1   20 1
   3    1    6 ar
   4    2    3 ar
   5    2   24 1
   6    3    4 ar
   7    3   25 1
   8    4    5 ar
   9    4   26 1
  10    5    6 ar
  11    5    7 1
  12    6   27 1
  13    7    8 3
  14    8    9 1
  15    9   10 ar
  16    9   14 ar
  17   10   11 ar
  18   10   28 1
  19   11   12 ar
  20   11   15 1
  21   12   13 ar
  22   12   18 1
  23   13   14 ar
  24   13   29 1
  25   14   30 1
  26   15   16 1
  27   15   31 1
  28   15   32 1
  29   16   17 1
  30   16   33 1
  31   16   34 1
  32   17   18 am
  33   17   35 1
  34   18   19 2
  35   20   21 1
  36   20   22 1
  37   20   23 1

#	End of record

