#	Name: ASD01510127
#	Creating user name:	WinNT
#	Creation time:	15. 06. 2019 19:21

#	Modifying user name:	WinNT
#	Modification time:	15. 06. 2019 19:21

#	Program:	/corina/corina34_cracker 3.40 0067  02.08.2006

@<TRIPOS>MOLECULE
ASD01510127
  50   53    0    0    0
SMALL
NO_CHARGES


@<TRIPOS>ATOM
   1 C1             1.3019     1.5360     0.5137 C.3     
   2 N2             1.1270     0.0796     0.4359 N.3     
   3 C3             1.7833    -0.5908     1.5671 C.3     
   4 C4             1.5113    -2.0951     1.4928 C.3     
   5 N5             2.0102    -2.6178     0.2132 N.3     
   6 C6             1.3539    -1.9475    -0.9181 C.3     
   7 C7             1.6260    -0.4432    -0.8437 C.3     
   8 C8             1.8451    -3.9929     0.1397 C.ar    
   9 N9             1.2946    -4.6303     1.1622 N.ar    
  10 C10            1.1179    -5.9414     1.1342 C.ar    
  11 C11            1.5187    -6.6559     0.0104 C.ar    
  12 C12            2.0985    -5.9497    -1.0549 C.ar    
  13 N13            2.2371    -4.6297    -0.9516 N.ar    
  14 C14            2.5441    -6.6607    -2.2764 C.ar    
  15 C15            2.4274    -6.0494    -3.5241 C.ar    
  16 C16            2.8445    -6.7163    -4.6579 C.ar    
  17 C17            3.3773    -7.9891    -4.5584 C.ar    
  18 C18            3.4952    -8.6009    -3.3233 C.ar    
  19 C19            3.0872    -7.9415    -2.1818 C.ar    
  20 S20            1.3049    -8.4029    -0.0736 S.3     
  21 C21            0.7042    -8.8063     1.5330 C.ar    
  22 C22           -0.6643    -8.8759     1.7672 C.ar    
  23 C23           -1.1358    -9.1921     3.0267 C.ar    
  24 C24           -0.2498    -9.4398     4.0574 C.ar    
  25 C25            1.1199    -9.3720     3.8303 C.ar    
  26 C26            1.5974    -9.0608     2.5655 C.ar    
  27 N27            2.0147    -9.6226     4.8732 N.pl3   
  28 H28            2.3649     1.7760     0.4932 H       
  29 H29            0.8066     2.0073    -0.3353 H       
  30 H30            0.8638     1.9056     1.4409 H       
  31 H31            2.8577    -0.4128     1.5217 H       
  32 H32            1.3881    -0.1956     2.5030 H       
  33 H33            2.0211    -2.5979     2.3146 H       
  34 H34            0.4386    -2.2747     1.5656 H       
  35 H35            1.7491    -2.3426    -1.8539 H       
  36 H36            0.2795    -2.1254    -0.8726 H       
  37 H37            1.1161     0.0596    -1.6655 H       
  38 H38            2.6986    -0.2635    -0.9165 H       
  39 H39            0.6682    -6.4505     1.9739 H       
  40 H40            2.0110    -5.0560    -3.6031 H       
  41 H41            2.7546    -6.2438    -5.6248 H       
  42 H42            3.7021    -8.5073    -5.4485 H       
  43 H43            3.9116    -9.5949    -3.2518 H       
  44 H44            3.1798    -8.4202    -1.2181 H       
  45 H45           -1.3596    -8.6821     0.9638 H       
  46 H46           -2.1995    -9.2455     3.2060 H       
  47 H47           -0.6219    -9.6861     5.0409 H       
  48 H48            2.6611    -9.0079     2.3863 H       
  49 H49            1.6804    -9.8441     5.7564 H       
  50 H50            2.9704    -9.5752     4.7142 H       
@<TRIPOS>BOND
   1    1    2 1
   2    1   28 1
   3    1   29 1
   4    1   30 1
   5    2    3 1
   6    2    7 1
   7    3    4 1
   8    3   31 1
   9    3   32 1
  10    4    5 1
  11    4   33 1
  12    4   34 1
  13    5    6 1
  14    5    8 1
  15    6    7 1
  16    6   35 1
  17    6   36 1
  18    7   37 1
  19    7   38 1
  20    8    9 ar
  21    8   13 ar
  22    9   10 ar
  23   10   11 ar
  24   10   39 1
  25   11   12 ar
  26   11   20 1
  27   12   13 ar
  28   12   14 1
  29   14   15 ar
  30   14   19 ar
  31   15   16 ar
  32   15   40 1
  33   16   17 ar
  34   16   41 1
  35   17   18 ar
  36   17   42 1
  37   18   19 ar
  38   18   43 1
  39   19   44 1
  40   20   21 1
  41   21   22 ar
  42   21   26 ar
  43   22   23 ar
  44   22   45 1
  45   23   24 ar
  46   23   46 1
  47   24   25 ar
  48   24   47 1
  49   25   26 ar
  50   25   27 1
  51   26   48 1
  52   27   49 1
  53   27   50 1

#	End of record

