#	Name: ASD01890151
#	Creating user name:	WinNT
#	Creation time:	15. 06. 2019 19:50

#	Modifying user name:	WinNT
#	Modification time:	15. 06. 2019 19:50

#	Program:	/corina/corina34_cracker 3.40 0067  02.08.2006

@<TRIPOS>MOLECULE
ASD01890151
  41   42    0    0    0
SMALL
NO_CHARGES


@<TRIPOS>ATOM
   1 C1            -0.0178     1.4581     0.0101 C.2     
   2 C2             0.0021    -0.0041     0.0020 C.2     
   3 C3             1.1794    -0.6627    -0.0128 C.2     
   4 C4             1.1999    -2.1695    -0.0210 C.3     
   5 C5             1.3188    -2.6700    -1.4620 C.3     
   6 O6             1.0271     2.0805     0.0034 O.2     
   7 O7            -1.1951     2.1167     0.0192 O.3     
   8 C8             2.4439     0.0905    -0.0208 C.ar    
   9 C9             2.7965     0.8832     1.0760 C.ar    
  10 C10            3.9847     1.5868     1.0605 C.ar    
  11 C11            4.8257     1.5078    -0.0388 C.ar    
  12 C12            4.4816     0.7255    -1.1268 C.ar    
  13 C13            3.3012     0.0124    -1.1228 C.ar    
  14 F14            4.3279     2.3538     2.1184 F       
  15 C15            1.3392    -4.1769    -1.4703 C.ar    
  16 C16            0.1549    -4.8834    -1.5671 C.ar    
  17 C17            0.1731    -6.2654    -1.5748 C.ar    
  18 C18            1.3767    -6.9417    -1.4855 C.ar    
  19 C19            2.5616    -6.2340    -1.3886 C.ar    
  20 C20            2.5427    -4.8520    -1.3867 C.ar    
  21 Cl21           1.4002    -8.6775    -1.4944 Cl      
  22 C22           -1.1397     3.5446     0.0267 C.3     
  23 C23           -2.5613     4.1101     0.0365 C.3     
  24 H24           -0.9258    -0.5567     0.0079 H       
  25 H25            2.0521    -2.5245     0.5584 H       
  26 H26            0.2777    -2.5478     0.4201 H       
  27 H27            0.4665    -2.3150    -2.0414 H       
  28 H28            2.2410    -2.2917    -1.9031 H       
  29 H29            2.1414     0.9452     1.9324 H       
  30 H30            5.7539     2.0600    -0.0461 H       
  31 H31            5.1418     0.6693    -1.9797 H       
  32 H32            3.0370    -0.6014    -1.9713 H       
  33 H33           -0.7846    -4.3554    -1.6364 H       
  34 H34           -0.7522    -6.8173    -1.6501 H       
  35 H35            3.5015    -6.7614    -1.3188 H       
  36 H36            3.4679    -4.2994    -1.3155 H       
  37 H37           -0.6079     3.8829     0.9160 H       
  38 H38           -0.6164     3.8926    -0.8639 H       
  39 H39           -2.5190     5.1993     0.0423 H       
  40 H40           -3.0931     3.7718    -0.8528 H       
  41 H41           -3.0846     3.7622     0.9271 H       
@<TRIPOS>BOND
   1    1    2 1
   2    1    6 2
   3    1    7 1
   4    2    3 2
   5    2   24 1
   6    3    4 1
   7    3    8 1
   8    4    5 1
   9    4   25 1
  10    4   26 1
  11    5   15 1
  12    5   27 1
  13    5   28 1
  14    7   22 1
  15    8    9 ar
  16    8   13 ar
  17    9   10 ar
  18    9   29 1
  19   10   11 ar
  20   10   14 1
  21   11   12 ar
  22   11   30 1
  23   12   13 ar
  24   12   31 1
  25   13   32 1
  26   15   16 ar
  27   15   20 ar
  28   16   17 ar
  29   16   33 1
  30   17   18 ar
  31   17   34 1
  32   18   19 ar
  33   18   21 1
  34   19   20 ar
  35   19   35 1
  36   20   36 1
  37   22   23 1
  38   22   37 1
  39   22   38 1
  40   23   39 1
  41   23   40 1
  42   23   41 1

#	End of record

