#	Name: ASD03091057
#	Creating user name:	WinNT
#	Creation time:	15. 06. 2019 20:30

#	Modifying user name:	WinNT
#	Modification time:	15. 06. 2019 20:30

#	Program:	/corina/corina34_cracker 3.40 0067  02.08.2006

@<TRIPOS>MOLECULE
ASD03091057
  21   21    0    0    0
SMALL
NO_CHARGES


@<TRIPOS>ATOM
   1 C1            -0.0406     1.4268    -0.5157 C.2     
   2 C2            -0.0089    -0.0266    -0.2532 C.ar    
   3 C3             1.2139    -0.6879    -0.1185 C.ar    
   4 C4             1.2378    -2.0438     0.1268 C.ar    
   5 C5             0.0507    -2.7516     0.2394 C.ar    
   6 C6            -1.1659    -2.1002     0.1066 C.ar    
   7 C7            -1.2013    -0.7431    -0.1331 C.ar    
   8 O8             0.5263     1.8810    -1.4904 O.2     
   9 N9            -0.7029     2.2486     0.3225 N.am    
  10 N10            2.4819     0.0662    -0.2395 N.pl3   
  11 O11            3.5450    -0.5281    -0.2529 O.2     
  12 O12            2.4622     1.2809    -0.3257 O.2     
  13 C13           -0.7344     3.6900     0.0622 C.3     
  14 F14            0.0797    -4.0809     0.4790 F       
  15 H15            2.1829    -2.5562     0.2311 H       
  16 H16           -2.0875    -2.6562     0.1953 H       
  17 H17           -2.1496    -0.2358    -0.2320 H       
  18 H18           -1.1586     1.8858     1.0981 H       
  19 H19           -1.3125     4.1873     0.8411 H       
  20 H20            0.2831     4.0810     0.0593 H       
  21 H21           -1.1972     3.8741    -0.9073 H       
@<TRIPOS>BOND
   1    1    2 1
   2    1    8 2
   3    1    9 am
   4    2    3 ar
   5    2    7 ar
   6    3    4 ar
   7    3   10 1
   8    4    5 ar
   9    4   15 1
  10    5    6 ar
  11    5   14 1
  12    6    7 ar
  13    6   16 1
  14    7   17 1
  15    9   13 1
  16    9   18 1
  17   10   11 2
  18   10   12 2
  19   13   19 1
  20   13   20 1
  21   13   21 1

#	End of record

