#	Name: ASD00570003
#	Creating user name:	WinNT
#	Creation time:	15. 06. 2019 18:36

#	Modifying user name:	WinNT
#	Modification time:	15. 06. 2019 18:36

#	Program:	/corina/corina34_cracker 3.40 0067  02.08.2006

@<TRIPOS>MOLECULE
ASD00570003
  64   67    0    0    0
SMALL
NO_CHARGES


@<TRIPOS>ATOM
   1 C1             7.0315    -2.2412    -6.2115 C.ar    
   2 C2             6.6663    -3.3384    -5.4421 C.ar    
   3 C3             6.4700    -3.2146    -4.0855 C.ar    
   4 C4             6.6397    -1.9704    -3.4721 C.ar    
   5 C5             7.0114    -0.8557    -4.2584 C.ar    
   6 C6             7.2050    -1.0042    -5.6308 C.ar    
   7 N7             6.4558    -1.8066    -2.1410 N.2     
   8 C8             6.6143    -0.6403    -1.5656 C.2     
   9 N9             6.9720     0.4872    -2.2523 N.am    
  10 C10            7.1825     0.4402    -3.5881 C.2     
  11 C11            7.1221     1.6998    -1.5672 C.ar    
  12 C12            6.0086     2.3518    -1.0554 C.ar    
  13 C13            6.1602     3.5485    -0.3798 C.ar    
  14 C14            7.4203     4.0959    -0.2145 C.ar    
  15 C15            8.5307     3.4479    -0.7236 C.ar    
  16 C16            8.3859     2.2492    -1.3939 C.ar    
  17 Cl17           4.7687     4.3651     0.2609 Cl      
  18 S18            6.3542    -0.5185     0.1728 S.3     
  19 C19            5.7604    -2.1927     0.5198 C.3     
  20 C20            6.8829    -3.1768     0.3127 C.2     
  21 C21            5.2741    -2.2714     1.9683 C.3     
  22 C22            4.0461    -1.3757     2.1433 C.3     
  23 C23            3.6260    -1.3679     3.6145 C.3     
  24 C24            2.3980    -0.4722     3.7895 C.3     
  25 N25            6.6062    -4.4616     0.0140 N.am    
  26 C26            7.6896    -5.4326    -0.1908 C.3     
  27 C27            7.4902    -6.1149    -1.5478 C.3     
  28 C28            6.0852    -6.7186    -1.6091 C.3     
  29 C29            5.0436    -5.6060    -1.4702 C.3     
  30 C30            5.2152    -4.9192    -0.1069 C.3     
  31 O31            8.0352    -2.8125     0.4147 O.2     
  32 C32            5.8975    -7.4201    -2.9296 C.2     
  33 N33            4.7284    -8.0301    -3.2084 N.am    
  34 O34            6.7983    -7.4358    -3.7415 O.2     
  35 O35            7.5012     1.4358    -4.2118 O.2     
  36 H36            7.1851    -2.3599    -7.2739 H       
  37 H37            6.5343    -4.3007    -5.9144 H       
  38 H38            6.1858    -4.0750    -3.4978 H       
  39 H39            7.4890    -0.1551    -6.2348 H       
  40 H40            5.0251     1.9249    -1.1850 H       
  41 H41            7.5367     5.0312     0.3129 H       
  42 H42            9.5129     3.8777    -0.5934 H       
  43 H43            9.2538     1.7437    -1.7909 H       
  44 H44            4.9375    -2.4332    -0.1533 H       
  45 H45            5.0096    -3.3014     2.2074 H       
  46 H46            6.0670    -1.9355     2.6366 H       
  47 H47            4.2891    -0.3606     1.8295 H       
  48 H48            3.2275    -1.7583     1.5338 H       
  49 H49            3.3830    -2.3831     3.9284 H       
  50 H50            4.4446    -0.9853     4.2241 H       
  51 H51            2.0987    -0.4667     4.8376 H       
  52 H52            2.6410     0.5429     3.4757 H       
  53 H53            1.5794    -0.8549     3.1800 H       
  54 H54            8.6497    -4.9167    -0.1787 H       
  55 H55            7.6645    -6.1807     0.6016 H       
  56 H56            7.6057    -5.3804    -2.3448 H       
  57 H57            8.2313    -6.9049    -1.6702 H       
  58 H58            5.9620    -7.4349    -0.7969 H       
  59 H59            5.1822    -4.8763    -2.2680 H       
  60 H60            4.0433    -6.0337    -1.5375 H       
  61 H61            4.9872    -5.6269     0.6901 H       
  62 H62            4.5433    -4.0634    -0.0417 H       
  63 H63            4.0079    -8.0176    -2.5591 H       
  64 H64            4.6076    -8.4817    -4.0583 H       
@<TRIPOS>BOND
   1    1    2 ar
   2    1    6 ar
   3    1   36 1
   4    2    3 ar
   5    2   37 1
   6    3    4 ar
   7    3   38 1
   8    4    5 ar
   9    4    7 1
  10    5    6 ar
  11    5   10 1
  12    6   39 1
  13    7    8 2
  14    8    9 1
  15    8   18 1
  16    9   10 am
  17    9   11 1
  18   10   35 2
  19   11   12 ar
  20   11   16 ar
  21   12   13 ar
  22   12   40 1
  23   13   14 ar
  24   13   17 1
  25   14   15 ar
  26   14   41 1
  27   15   16 ar
  28   15   42 1
  29   16   43 1
  30   18   19 1
  31   19   20 1
  32   19   21 1
  33   19   44 1
  34   20   25 am
  35   20   31 2
  36   21   22 1
  37   21   45 1
  38   21   46 1
  39   22   23 1
  40   22   47 1
  41   22   48 1
  42   23   24 1
  43   23   49 1
  44   23   50 1
  45   24   51 1
  46   24   52 1
  47   24   53 1
  48   25   26 1
  49   25   30 1
  50   26   27 1
  51   26   54 1
  52   26   55 1
  53   27   28 1
  54   27   56 1
  55   27   57 1
  56   28   29 1
  57   28   32 1
  58   28   58 1
  59   29   30 1
  60   29   59 1
  61   29   60 1
  62   30   61 1
  63   30   62 1
  64   32   33 am
  65   32   34 2
  66   33   63 1
  67   33   64 1

#	End of record

