#	Name: ASD01910074
#	Creating user name:	WinNT
#	Creation time:	15. 06. 2019 19:55

#	Modifying user name:	WinNT
#	Modification time:	15. 06. 2019 19:55

#	Program:	/corina/corina34_cracker 3.40 0067  02.08.2006

@<TRIPOS>MOLECULE
ASD01910074
  40   43    0    0    0
SMALL
NO_CHARGES


@<TRIPOS>ATOM
   1 C1             0.0733     1.4067    -0.3328 C.2     
   2 N2             0.1548     0.0573    -0.5828 N.pl3   
   3 C3            -0.8295    -0.5760    -1.2909 C.2     
   4 C4            -1.8929     0.1117    -1.7543 C.2     
   5 C5            -2.0045     1.4925    -1.5147 C.2     
   6 C6            -1.0374     2.1356    -0.8077 C.2     
   7 N7             1.1385     1.7718     0.3630 N.2     
   8 C8             1.9184     0.6982     0.5771 C.2     
   9 C9             1.3141    -0.3931    -0.0122 C.2     
  10 C10            3.2029     0.6886     1.3162 C.ar    
  11 C11            4.0623     1.7841     1.2403 C.ar    
  12 C12            5.2570     1.7693     1.9306 C.ar    
  13 C13            5.6030     0.6704     2.6966 C.ar    
  14 C14            4.7546    -0.4195     2.7754 C.ar    
  15 C15            3.5542    -0.4136     2.0948 C.ar    
  16 N16            1.7926    -1.7029    -0.0242 N.am    
  17 C17            1.1324    -2.6677     0.6465 C.2     
  18 C18            1.5756    -4.0741     0.5447 C.ar    
  19 C19            0.8943    -5.0726     1.2373 C.ar    
  20 C20            1.3190    -6.3964     1.1357 C.ar    
  21 C21            2.4238    -6.7131     0.3411 C.ar    
  22 C22            3.0943    -5.7181    -0.3425 C.ar    
  23 C23            2.6753    -4.4059    -0.2509 C.ar    
  24 O24            0.1722    -2.3811     1.3352 O.2     
  25 C25            0.6250    -7.4292     1.8444 C.1     
  26 N26            0.0745    -8.2485     2.4067 N.1     
  27 H27           -0.7542    -1.6365    -1.4809 H       
  28 H28           -2.6624    -0.4007    -2.3125 H       
  29 H29           -2.8576     2.0399    -1.8875 H       
  30 H30           -1.1145     3.1961    -0.6187 H       
  31 H31            3.7937     2.6422     0.6421 H       
  32 H32            5.9235     2.6172     1.8726 H       
  33 H33            6.5392     0.6633     3.2349 H       
  34 H34            5.0302    -1.2747     3.3746 H       
  35 H35            2.8926    -1.2649     2.1574 H       
  36 H36            2.6007    -1.9196    -0.5152 H       
  37 H37            0.0412    -4.8222     1.8503 H       
  38 H38            2.7542    -7.7382     0.2617 H       
  39 H39            3.9476    -5.9683    -0.9554 H       
  40 H40            3.2041    -3.6327    -0.7885 H       
@<TRIPOS>BOND
   1    1    2 1
   2    1    7 2
   3    1    6 1
   4    2    3 1
   5    2    9 1
   6    3    4 2
   7    3   27 1
   8    4    5 1
   9    4   28 1
  10    5    6 2
  11    5   29 1
  12    6   30 1
  13    7    8 1
  14    8    9 2
  15    8   10 1
  16    9   16 1
  17   10   11 ar
  18   10   15 ar
  19   11   12 ar
  20   11   31 1
  21   12   13 ar
  22   12   32 1
  23   13   14 ar
  24   13   33 1
  25   14   15 ar
  26   14   34 1
  27   15   35 1
  28   16   17 am
  29   16   36 1
  30   17   18 1
  31   17   24 2
  32   18   19 ar
  33   18   23 ar
  34   19   20 ar
  35   19   37 1
  36   20   21 ar
  37   20   25 1
  38   21   22 ar
  39   21   38 1
  40   22   23 ar
  41   22   39 1
  42   23   40 1
  43   25   26 3

#	End of record

