#	Name: ASD01811964
#	Creating user name:	WinNT
#	Creation time:	15. 06. 2019 19:27

#	Modifying user name:	WinNT
#	Modification time:	15. 06. 2019 19:27

#	Program:	/corina/corina34_cracker 3.40 0067  02.08.2006

@<TRIPOS>MOLECULE
ASD01811964
  40   42    0    0    0
SMALL
NO_CHARGES


@<TRIPOS>ATOM
   1 C1             0.3025     1.7833     0.5687 C.ar    
   2 C2             0.1650     0.4043     0.5816 C.ar    
   3 C3             1.2650    -0.3995     0.3829 C.ar    
   4 C4             2.5307     0.1658     0.1663 C.ar    
   5 C5             2.6660     1.5530     0.1551 C.ar    
   6 C6             1.5392     2.3524     0.3578 C.ar    
   7 C7             3.6611    -0.7525    -0.0423 C.2     
   8 N8             4.6028    -0.5771    -0.9003 N.2     
   9 C9             4.6429     0.5952    -1.7735 C.3     
  10 C10            4.8032     1.8282    -0.9266 C.2     
  11 N11            3.8756     2.1981    -0.0466 N.am    
  12 S12            6.1226     2.7171    -1.0874 S.2     
  13 C13            3.7190    -1.9703     0.7995 C.ar    
  14 C14            3.0673    -2.0010     2.0322 C.ar    
  15 C15            3.1246    -3.1383     2.8114 C.ar    
  16 C16            3.8269    -4.2464     2.3724 C.ar    
  17 C17            4.4757    -4.2219     1.1508 C.ar    
  18 C18            4.4206    -3.0926     0.3598 C.ar    
  19 Cl19          -1.3946    -0.3097     0.8490 Cl      
  20 C20            3.3394     0.6862    -2.5694 C.3     
  21 O21            3.3807     1.8323    -3.4219 O.3     
  22 C22            3.1712    -0.5753    -3.4187 C.3     
  23 C23            2.1001     2.4115    -3.6797 C.3     
  24 H24           -0.5620     2.4128     0.7198 H       
  25 H25            1.1528    -1.4736     0.3943 H       
  26 H26            1.6381     3.4278     0.3486 H       
  27 H27            5.4861     0.5111    -2.4591 H       
  28 H28            4.0609     2.9805     0.4960 H       
  29 H29            2.5194    -1.1363     2.3762 H       
  30 H30            2.6203    -3.1633     3.7662 H       
  31 H31            3.8691    -5.1342     2.9860 H       
  32 H32            5.0227    -5.0899     0.8136 H       
  33 H33            4.9272    -3.0747    -0.5939 H       
  34 H34            2.4989     0.7755    -1.8811 H       
  35 H35            4.0117    -0.6647    -4.1070 H       
  36 H36            3.1397    -1.4496    -2.7684 H       
  37 H37            2.2426    -0.5105    -3.9856 H       
  38 H38            2.2171     3.2755    -4.3338 H       
  39 H39            1.4585     1.6744    -4.1626 H       
  40 H40            1.6478     2.7263    -2.7393 H       
@<TRIPOS>BOND
   1    1    2 ar
   2    1    6 ar
   3    1   24 1
   4    2    3 ar
   5    2   19 1
   6    3    4 ar
   7    3   25 1
   8    4    5 ar
   9    4    7 1
  10    5    6 ar
  11    5   11 1
  12    6   26 1
  13    7    8 2
  14    7   13 1
  15    8    9 1
  16    9   10 1
  17    9   20 1
  18    9   27 1
  19   10   11 am
  20   10   12 2
  21   11   28 1
  22   13   14 ar
  23   13   18 ar
  24   14   15 ar
  25   14   29 1
  26   15   16 ar
  27   15   30 1
  28   16   17 ar
  29   16   31 1
  30   17   18 ar
  31   17   32 1
  32   18   33 1
  33   20   21 1
  34   20   22 1
  35   20   34 1
  36   21   23 1
  37   22   35 1
  38   22   36 1
  39   22   37 1
  40   23   38 1
  41   23   39 1
  42   23   40 1

#	End of record

