#	Name: ASD04560021
#	Creating user name:	WinNT
#	Creation time:	15. 06. 2019 20:49

#	Modifying user name:	WinNT
#	Modification time:	15. 06. 2019 20:49

#	Program:	/corina/corina34_cracker 3.40 0067  02.08.2006

@<TRIPOS>MOLECULE
ASD04560021
  64   67    0    0    0
SMALL
NO_CHARGES


@<TRIPOS>ATOM
   1 C1            -0.0173     1.3666     0.0244 C.ar    
   2 C2             0.0010    -0.0041     0.0241 C.ar    
   3 C3             1.2157    -0.6859     0.0136 C.ar    
   4 C4             2.4151     0.0225     0.0039 C.ar    
   5 C5             2.4031     1.3933     0.0042 C.ar    
   6 C6             1.1852     2.0805     0.0143 C.ar    
   7 C7             1.1690     3.5549     0.0141 C.2     
   8 O8             2.2154     4.1746     0.0053 O.2     
   9 N9            -0.0055     4.2159     0.0238 N.am    
  10 C10           -0.0226     5.6108     0.1367 C.ar    
  11 C11           -0.9921     6.3504    -0.5279 C.ar    
  12 C12            0.9079     7.6335     1.0278 C.ar    
  13 C13            0.9265     6.2569     0.9179 C.ar    
  14 F14           -0.0727     9.7160     0.4686 F       
  15 S15            1.2351    -2.4478     0.0132 S.3     
  16 C16           -1.0071     7.7268    -0.4152 C.ar    
  17 C17           -0.0563     8.3694     0.3597 C.ar    
  18 C18            3.1932    -4.3318    -0.0038 C.ar    
  19 C19            3.2693    -5.0247    -1.2128 C.ar    
  20 B20            3.1550    -4.2485    -2.5727 Du      
  21 C21            3.4476    -6.4092    -1.2106 C.ar    
  22 C22            3.5479    -7.0871    -0.0166 C.ar    
  23 C23            3.4713    -6.3941     1.1865 C.ar    
  24 C24            3.2942    -5.0153     1.1875 C.ar    
  25 O25            3.2108    -4.7942    -3.8984 O.3     
  26 C26            3.9760    -3.8339    -4.6567 C.3     
  27 C27            3.8136    -2.5078    -3.8862 C.3     
  28 O28            2.9655    -2.8390    -2.7619 O.3     
  29 C29            5.1742    -2.0022    -3.4024 C.3     
  30 C30            3.0069    -2.8364    -0.0020 C.3     
  31 C31            3.1365    -1.4577    -4.7691 C.3     
  32 C32            5.4489    -4.2450    -4.7056 C.3     
  33 C33            3.4112    -3.7005    -6.0724 C.3     
  34 O34            3.5697    -7.0649     2.3618 O.3     
  35 C35            3.7507    -8.4805     2.2876 C.3     
  36 F36            4.9317    -8.7638     1.5932 F       
  37 F37            3.8319    -9.0086     3.5806 F       
  38 F38            2.6658    -9.0548     1.6166 F       
  39 H39           -0.9594     1.8947     0.0280 H       
  40 H40           -0.9274    -0.5560     0.0322 H       
  41 H41            3.3553    -0.5088    -0.0035 H       
  42 H42            3.3333     1.9420    -0.0029 H       
  43 H43           -0.8390     3.7249    -0.0474 H       
  44 H44           -1.7336     5.8496    -1.1326 H       
  45 H45            1.6459     8.1363     1.6353 H       
  46 H46            1.6784     5.6833     1.4393 H       
  47 H47           -1.7607     8.3024    -0.9321 H       
  48 H48            3.5064    -6.9480    -2.1447 H       
  49 H49            3.6859    -8.1582    -0.0143 H       
  50 H50            3.2354    -4.4796     2.1234 H       
  51 H51            5.8263    -1.8369    -4.2601 H       
  52 H52            5.0421    -1.0657    -2.8606 H       
  53 H53            5.6235    -2.7438    -2.7420 H       
  54 H54            3.4643    -2.4122    -0.8959 H       
  55 H55            3.4794    -2.4125     0.8840 H       
  56 H56            2.1521    -1.8162    -5.0703 H       
  57 H57            3.0292    -0.5278    -4.2106 H       
  58 H58            3.7456    -1.2809    -5.6556 H       
  59 H59            5.5402    -5.2112    -5.2020 H       
  60 H60            6.0167    -3.4972    -5.2592 H       
  61 H61            5.8393    -4.3197    -3.6907 H       
  62 H62            2.3672    -3.3919    -6.0194 H       
  63 H63            3.9833    -2.9538    -6.6230 H       
  64 H64            3.4807    -4.6609    -6.5832 H       
@<TRIPOS>BOND
   1    1    2 ar
   2    1    6 ar
   3    1   39 1
   4    2    3 ar
   5    2   40 1
   6    3    4 ar
   7    3   15 1
   8    4    5 ar
   9    4   41 1
  10    5    6 ar
  11    5   42 1
  12    6    7 1
  13    7    8 2
  14    7    9 am
  15    9   10 1
  16    9   43 1
  17   10   11 ar
  18   10   13 ar
  19   11   16 ar
  20   11   44 1
  21   12   13 ar
  22   12   17 ar
  23   12   45 1
  24   13   46 1
  25   14   17 1
  26   15   30 1
  27   16   17 ar
  28   16   47 1
  29   18   19 ar
  30   18   24 ar
  31   18   30 1
  32   19   20 1
  33   19   21 ar
  34   20   25 1
  35   20   28 1
  36   21   22 ar
  37   21   48 1
  38   22   23 ar
  39   22   49 1
  40   23   24 ar
  41   23   34 1
  42   24   50 1
  43   25   26 1
  44   26   27 1
  45   26   32 1
  46   26   33 1
  47   27   28 1
  48   27   29 1
  49   27   31 1
  50   29   51 1
  51   29   52 1
  52   29   53 1
  53   30   54 1
  54   30   55 1
  55   31   56 1
  56   31   57 1
  57   31   58 1
  58   32   59 1
  59   32   60 1
  60   32   61 1
  61   33   62 1
  62   33   63 1
  63   33   64 1
  64   34   35 1
  65   35   36 1
  66   35   37 1
  67   35   38 1

#	End of record

