#	Name: ASD03930005
#	Creating user name:	WinNT
#	Creation time:	15. 06. 2019 20:47

#	Modifying user name:	WinNT
#	Modification time:	15. 06. 2019 20:47

#	Program:	/corina/corina34_cracker 3.40 0067  02.08.2006

@<TRIPOS>MOLECULE
ASD03930005
  31   33    0    0    0
SMALL
NO_CHARGES


@<TRIPOS>ATOM
   1 C1            -0.0184     1.5028     0.0103 C.2     
   2 C2             0.0021    -0.0041     0.0020 C.3     
   3 O3             1.0236     2.1234     0.0037 O.2     
   4 N4            -1.1946     2.1607     0.0195 N.am    
   5 S5             2.2872    -0.0165     1.5322 S.o2    
   6 C6             1.4513    -0.4944    -0.0145 C.3     
   7 N7             1.4837    -1.9630    -0.0824 N.pl3   
   8 C8             0.9586    -2.7274     0.9567 C.ar    
   9 C9             0.9825    -2.3125     2.3034 C.ar    
  10 C10            1.5447    -1.0941     2.7193 C.ar    
  11 C11            0.3935    -3.9478     0.6324 C.ar    
  12 C12           -0.1545    -4.7687     1.6101 C.ar    
  13 C13           -0.1516    -4.3913     2.9170 C.ar    
  14 C14            0.4104    -3.1585     3.2910 C.ar    
  15 C15            0.4059    -2.7561     4.6378 C.ar    
  16 C16            0.9529    -1.5628     4.9933 C.ar    
  17 C17            1.5242    -0.7339     4.0302 C.ar    
  18 O18            3.6551    -0.4005     1.5062 O.2     
  19 O19            1.8936     1.2876     1.9367 O.2     
  20 H20           -0.4983    -0.3791     0.8948 H       
  21 H21           -0.5153    -0.3696    -0.8850 H       
  22 H22           -2.0280     1.6644     0.0207 H       
  23 H23           -1.2077     3.1306     0.0248 H       
  24 H24            1.9780    -0.0693    -0.8688 H       
  25 H25            1.8725    -2.4016    -0.8553 H       
  26 H26            0.3778    -4.2678    -0.3990 H       
  27 H27           -0.5880    -5.7171     1.3293 H       
  28 H28           -0.5808    -5.0391     3.6671 H       
  29 H29           -0.0324    -3.3946     5.3905 H       
  30 H30            0.9444    -1.2558     6.0288 H       
  31 H31            1.9571     0.2092     4.3294 H       
@<TRIPOS>BOND
   1    1    2 1
   2    1    3 2
   3    1    4 am
   4    2    6 1
   5    2   20 1
   6    2   21 1
   7    4   22 1
   8    4   23 1
   9    5    6 1
  10    5   10 1
  11    5   18 2
  12    5   19 2
  13    6    7 1
  14    6   24 1
  15    7    8 1
  16    7   25 1
  17    8    9 ar
  18    8   11 ar
  19    9   10 ar
  20    9   14 ar
  21   10   17 ar
  22   11   12 ar
  23   11   26 1
  24   12   13 ar
  25   12   27 1
  26   13   14 ar
  27   13   28 1
  28   14   15 ar
  29   15   16 ar
  30   15   29 1
  31   16   17 ar
  32   16   30 1
  33   17   31 1

#	End of record

