#	Name: ASD01885247
#	Creating user name:	WinNT
#	Creation time:	15. 06. 2019 19:49

#	Modifying user name:	WinNT
#	Modification time:	15. 06. 2019 19:49

#	Program:	/corina/corina34_cracker 3.40 0067  02.08.2006

@<TRIPOS>MOLECULE
ASD01885247
  53   56    0    0    0
SMALL
NO_CHARGES


@<TRIPOS>ATOM
   1 C1            -0.0164     1.3561     0.0095 C.ar    
   2 C2             0.0021    -0.0041     0.0020 C.ar    
   3 C3             1.2056    -0.7066    -0.0128 C.ar    
   4 C4             2.3988    -0.0488    -0.0202 C.ar    
   5 C5             2.4185     1.3521    -0.0133 C.ar    
   6 C6             1.1968     2.0713     0.0018 C.ar    
   7 C7             3.6407     2.0708    -0.0210 C.ar    
   8 C8             3.5790     3.4576    -0.0140 C.ar    
   9 C9             2.3316     4.0919     0.0004 C.ar    
  10 N10            1.2052     3.4045     0.0084 N.ar    
  11 C11            4.9419     1.3643    -0.0357 C.ar    
  12 C12            5.9189     1.7163    -0.9675 C.ar    
  13 C13            7.1292     1.0553    -0.9771 C.ar    
  14 C14            7.3759     0.0429    -0.0632 C.ar    
  15 C15            6.4086    -0.3104     0.8644 C.ar    
  16 C16            5.1972     0.3485     0.8859 C.ar    
  17 C17            2.2743     5.5736     0.0078 C.2     
  18 O18            3.3021     6.2214     0.0015 O.2     
  19 N19            1.0819     6.2018     0.0216 N.am    
  20 C20           -1.2997    -0.7633     0.0104 C.3     
  21 N21           -1.7346    -1.0020    -1.3681 N.pl3   
  22 N22           -1.9171    -0.0209    -2.3490 N.2     
  23 C23           -2.3074    -0.5947    -3.4535 C.2     
  24 C24           -2.3907    -1.9858    -3.2175 C.2     
  25 C25           -2.0196    -2.1990    -1.9042 C.2     
  26 F26            8.5630    -0.6020    -0.0769 F       
  27 C27           -2.7925    -3.0155    -4.1910 C.2     
  28 O28           -2.8268    -4.3119    -3.8250 O.3     
  29 O29           -3.0929    -2.6959    -5.3243 O.2     
  30 C30           -3.2321    -5.2718    -4.8362 C.3     
  31 C31           -3.2106    -6.6806    -4.2398 C.3     
  32 C32           -2.6159     0.1032    -4.7530 C.3     
  33 F33           -2.3106     1.4635    -4.6357 F       
  34 F34           -1.8488    -0.4601    -5.7784 F       
  35 F35           -3.9745    -0.0457    -5.0513 F       
  36 H36           -0.9577     1.8854     0.0168 H       
  37 H37            1.1924    -1.7865    -0.0181 H       
  38 H38            3.3248    -0.6045    -0.0309 H       
  39 H39            4.4868     4.0426    -0.0191 H       
  40 H40            5.7275     2.5048    -1.6802 H       
  41 H41            7.8860     1.3267    -1.6983 H       
  42 H42            6.6055    -1.0999     1.5745 H       
  43 H43            4.4458     0.0755     1.6120 H       
  44 H44            0.2613     5.6846     0.0267 H       
  45 H45            1.0444     7.1711     0.0265 H       
  46 H46           -1.1602    -1.7179     0.5178 H       
  47 H47           -2.0569    -0.1804     0.5346 H       
  48 H48           -1.9697    -3.1532    -1.4008 H       
  49 H49           -4.2404    -5.0368    -5.1769 H       
  50 H50           -2.5432    -5.2238    -5.6796 H       
  51 H51           -3.5148    -7.4012    -4.9989 H       
  52 H52           -2.2022    -6.9156    -3.8991 H       
  53 H53           -3.8995    -6.7287    -3.3964 H       
@<TRIPOS>BOND
   1    1    2 ar
   2    1    6 ar
   3    1   36 1
   4    2    3 ar
   5    2   20 1
   6    3    4 ar
   7    3   37 1
   8    4    5 ar
   9    4   38 1
  10    5    7 ar
  11    5    6 ar
  12    6   10 ar
  13    7    8 ar
  14    7   11 1
  15    8    9 ar
  16    8   39 1
  17    9   10 ar
  18    9   17 1
  19   11   12 ar
  20   11   16 ar
  21   12   13 ar
  22   12   40 1
  23   13   14 ar
  24   13   41 1
  25   14   15 ar
  26   14   26 1
  27   15   16 ar
  28   15   42 1
  29   16   43 1
  30   17   18 2
  31   17   19 am
  32   19   44 1
  33   19   45 1
  34   20   21 1
  35   20   46 1
  36   20   47 1
  37   21   22 1
  38   21   25 1
  39   22   23 2
  40   23   24 1
  41   23   32 1
  42   24   25 2
  43   24   27 1
  44   25   48 1
  45   27   28 1
  46   27   29 2
  47   28   30 1
  48   30   31 1
  49   30   49 1
  50   30   50 1
  51   31   51 1
  52   31   52 1
  53   31   53 1
  54   32   33 1
  55   32   34 1
  56   32   35 1

#	End of record

