#	Name: ASD01913641
#	Creating user name:	WinNT
#	Creation time:	15. 06. 2019 20:02

#	Modifying user name:	WinNT
#	Modification time:	15. 06. 2019 20:02

#	Program:	/corina/corina34_cracker 3.40 0067  02.08.2006

@<TRIPOS>MOLECULE
ASD01913641
  46   48    0    0    0
SMALL
NO_CHARGES


@<TRIPOS>ATOM
   1 C1            -0.0167     1.3781     0.0096 C.ar    
   2 C2             0.0021    -0.0041     0.0020 C.ar    
   3 C3             1.2084    -0.6789    -0.0132 C.ar    
   4 C4             2.3960     0.0285    -0.0212 C.ar    
   5 C5             2.3773     1.4107    -0.0145 C.ar    
   6 C6             1.1710     2.0855     0.0021 C.ar    
   7 C7             3.6720     2.1819    -0.0228 C.3     
   8 O8             4.0688     2.4320    -1.3726 O.3     
   9 C9             5.2213     3.1203    -1.5575 C.ar    
  10 N10            5.9165     3.5236    -0.5053 N.ar    
  11 C11            7.0417     4.1951    -0.6330 C.ar    
  12 C12            7.5436     4.5074    -1.8969 C.ar    
  13 C13            6.8311     4.0946    -3.0327 C.ar    
  14 C14            5.6602     3.3882    -2.8507 C.ar    
  15 C15            8.8050     5.2612    -2.0368 C.2     
  16 N16            9.4811     5.6532    -0.9388 N.am    
  17 O17            9.2340     5.5285    -3.1426 O.2     
  18 C18           10.7330     6.4014    -1.0777 C.3     
  19 C19           11.2927     6.7210     0.3099 C.3     
  20 C20           12.6620     7.3927     0.1678 C.3     
  21 C21           13.1784     7.7797     1.5561 C.3     
  22 O22           12.2326     8.6424     2.1912 O.3     
  23 C23           10.9475     8.0511     2.3935 C.3     
  24 C24           10.3415     7.6750     1.0389 C.3     
  25 H25           -0.9592     1.9054     0.0170 H       
  26 H26           -0.9258    -0.5567     0.0083 H       
  27 H27            1.2231    -1.7588    -0.0184 H       
  28 H28            3.3386    -0.4987    -0.0324 H       
  29 H29            1.1563     3.1654     0.0069 H       
  30 H30            3.5335     3.1300     0.4968 H       
  31 H31            4.4443     1.6008     0.4812 H       
  32 H32            7.5813     4.5075     0.2488 H       
  33 H33            7.1926     4.3205    -4.0250 H       
  34 H34            5.0860     3.0543    -3.7023 H       
  35 H35            9.1388     5.4400    -0.0566 H       
  36 H36           11.4552     5.8015    -1.6315 H       
  37 H37           10.5434     7.3302    -1.6158 H       
  38 H38           11.3964     5.7993     0.8824 H       
  39 H39           13.3608     6.6997    -0.3006 H       
  40 H40           12.5668     8.2872    -0.4478 H       
  41 H41           13.3118     6.8807     2.1579 H       
  42 H42           14.1330     8.2965     1.4578 H       
  43 H43           11.0517     7.1557     3.0063 H       
  44 H44           10.2950     8.7634     2.8984 H       
  45 H45           10.1994     8.5752     0.4409 H       
  46 H46            9.3808     7.1838     1.1934 H       
@<TRIPOS>BOND
   1    1    2 ar
   2    1    6 ar
   3    1   25 1
   4    2    3 ar
   5    2   26 1
   6    3    4 ar
   7    3   27 1
   8    4    5 ar
   9    4   28 1
  10    5    6 ar
  11    5    7 1
  12    6   29 1
  13    7    8 1
  14    7   30 1
  15    7   31 1
  16    8    9 1
  17    9   10 ar
  18    9   14 ar
  19   10   11 ar
  20   11   12 ar
  21   11   32 1
  22   12   13 ar
  23   12   15 1
  24   13   14 ar
  25   13   33 1
  26   14   34 1
  27   15   16 am
  28   15   17 2
  29   16   18 1
  30   16   35 1
  31   18   19 1
  32   18   36 1
  33   18   37 1
  34   19   20 1
  35   19   24 1
  36   19   38 1
  37   20   21 1
  38   20   39 1
  39   20   40 1
  40   21   22 1
  41   21   41 1
  42   21   42 1
  43   22   23 1
  44   23   24 1
  45   23   43 1
  46   23   44 1
  47   24   45 1
  48   24   46 1

#	End of record

