#	Name: ASD01411225
#	Creating user name:	WinNT
#	Creation time:	15. 06. 2019 19:19

#	Modifying user name:	WinNT
#	Modification time:	15. 06. 2019 19:19

#	Program:	/corina/corina34_cracker 3.40 0067  02.08.2006

@<TRIPOS>MOLECULE
ASD01411225
  80   84    0    0    0
SMALL
NO_CHARGES


@<TRIPOS>ATOM
   1 C1             0.6800     2.4405    -2.5793 C.ar    
   2 C2             1.5833     2.6314    -3.6155 C.ar    
   3 C3             2.8918     2.2198    -3.4557 C.ar    
   4 N4             3.2893     1.6502    -2.3341 N.ar    
   5 C5             2.4581     1.4512    -1.3242 C.ar    
   6 C6             1.1278     1.8400    -1.4153 C.ar    
   7 C7             4.4339    -0.9616    -0.0628 C.ar    
   8 C8             4.1890     0.4020    -0.1733 C.ar    
   9 O9             2.9095     0.8616    -0.1887 O.3     
  10 C10            5.7288    -1.4387    -0.0457 C.ar    
  11 C11            6.7974    -0.5579    -0.1385 C.ar    
  12 C12            6.5569     0.8200    -0.2508 C.ar    
  13 C13            5.2426     1.2930    -0.2671 C.ar    
  14 C14            1.1409     3.2805    -4.9016 C.3     
  15 N15            8.1051    -1.0404    -0.1203 N.am    
  16 C16            8.7417    -1.3059    -1.2782 C.2     
  17 C17           10.0983    -1.9619    -1.2591 C.3     
  18 O18            8.2227    -1.0169    -2.3356 O.2     
  19 C19           10.6654    -2.0022    -2.6795 C.3     
  20 C20            9.9674    -3.3884    -0.7215 C.3     
  21 C21            9.0264    -4.1891    -1.6238 C.3     
  22 C22            9.5935    -4.2295    -3.0442 C.3     
  23 C23            9.7243    -2.8030    -3.5818 C.3     
  24 C24            8.6525    -5.0302    -3.9465 C.3     
  25 C25            8.7875    -1.2589     1.1575 C.3     
  26 C26            7.8438    -1.9785     2.1232 C.3     
  27 N27            1.3243     4.7307    -4.8050 N.pl3   
  28 N28            2.3960     5.3558    -5.1436 N.2     
  29 N29            0.4336     5.5528    -4.3752 N.2     
  30 C30            0.9259     6.7700    -4.4217 C.2     
  31 C31            2.2208     6.6400    -4.9287 C.2     
  32 C32            9.1968     0.0893     1.7542 C.3     
  33 C33            7.9498     0.9459     1.9819 C.3     
  34 C34            7.0061     0.2262     2.9475 C.3     
  35 C35            6.5968    -1.1219     2.3509 C.3     
  36 O36            5.8413     1.0263     3.1602 O.3     
  37 C37            5.2468     0.8565     4.4486 C.3     
  38 C38            0.1847     1.6112    -0.2624 C.3     
  39 F39           -1.0873     2.0865    -0.5992 F       
  40 F40            0.1123     0.2422     0.0163 F       
  41 F41            0.6535     2.2927     0.8659 F       
  42 C42            7.6851     1.7634    -0.3494 C.2     
  43 O43            8.8223     1.3438    -0.4349 O.2     
  44 O44            7.4554     3.0913    -0.3448 O.3     
  45 H45           -0.3478     2.7573    -2.6772 H       
  46 H46            3.5986     2.3658    -4.2591 H       
  47 H47            3.6063    -1.6512     0.0146 H       
  48 H48            5.9111    -2.4998     0.0404 H       
  49 H49            5.0496     2.3521    -0.3533 H       
  50 H50            1.7369     2.8931    -5.7279 H       
  51 H51            0.0884     3.0583    -5.0774 H       
  52 H52           10.7687    -1.3915    -0.6162 H       
  53 H53           10.7586    -0.9860    -3.0625 H       
  54 H54           11.6466    -2.4767    -2.6657 H       
  55 H55           10.9487    -3.8629    -0.7076 H       
  56 H56            9.5634    -3.3597     0.2905 H       
  57 H57            8.9332    -5.2054    -1.2408 H       
  58 H58            8.0452    -3.7147    -1.6376 H       
  59 H59           10.5747    -4.7039    -3.0304 H       
  60 H60            8.7431    -2.3285    -3.5957 H       
  61 H61           10.1283    -2.8317    -4.5938 H       
  62 H62            7.6713    -4.5557    -3.9604 H       
  63 H63            9.0565    -5.0589    -4.9585 H       
  64 H64            8.5593    -6.0464    -3.5635 H       
  65 H65            9.6760    -1.8692     0.9953 H       
  66 H66            7.5523    -2.9389     1.6981 H       
  67 H67            8.3516    -2.1411     3.0739 H       
  68 H68            0.4297     7.6841    -4.1307 H       
  69 H69            2.9325     7.4325    -5.1069 H       
  70 H70            9.7046    -0.0733     2.7049 H       
  71 H71            9.8691     0.6019     1.0662 H       
  72 H72            8.2413     1.9063     2.4069 H       
  73 H73            7.4420     1.1084     1.0312 H       
  74 H74            7.5138     0.0637     3.8983 H       
  75 H75            6.0890    -0.9593     1.4002 H       
  76 H76            5.9245    -1.6346     3.0389 H       
  77 H77            4.3691     1.4975     4.5311 H       
  78 H78            4.9500    -0.1843     4.5774 H       
  79 H79            5.9680     1.1268     5.2199 H       
  80 H80            8.2269     3.6704    -0.4115 H       
@<TRIPOS>BOND
   1    1    2 ar
   2    1    6 ar
   3    1   45 1
   4    2    3 ar
   5    2   14 1
   6    3    4 ar
   7    3   46 1
   8    4    5 ar
   9    5    6 ar
  10    5    9 1
  11    6   38 1
  12    7    8 ar
  13    7   10 ar
  14    7   47 1
  15    8    9 1
  16    8   13 ar
  17   10   11 ar
  18   10   48 1
  19   11   12 ar
  20   11   15 1
  21   12   13 ar
  22   12   42 1
  23   13   49 1
  24   14   27 1
  25   14   50 1
  26   14   51 1
  27   15   16 am
  28   15   25 1
  29   16   18 2
  30   16   17 1
  31   17   19 1
  32   17   20 1
  33   17   52 1
  34   19   23 1
  35   19   53 1
  36   19   54 1
  37   20   21 1
  38   20   55 1
  39   20   56 1
  40   21   22 1
  41   21   57 1
  42   21   58 1
  43   22   23 1
  44   22   24 1
  45   22   59 1
  46   23   60 1
  47   23   61 1
  48   24   62 1
  49   24   63 1
  50   24   64 1
  51   25   32 1
  52   25   26 1
  53   25   65 1
  54   26   35 1
  55   26   66 1
  56   26   67 1
  57   27   28 1
  58   27   29 1
  59   28   31 2
  60   29   30 2
  61   30   31 1
  62   30   68 1
  63   31   69 1
  64   32   33 1
  65   32   70 1
  66   32   71 1
  67   33   34 1
  68   33   72 1
  69   33   73 1
  70   34   35 1
  71   34   36 1
  72   34   74 1
  73   35   75 1
  74   35   76 1
  75   36   37 1
  76   37   77 1
  77   37   78 1
  78   37   79 1
  79   38   39 1
  80   38   40 1
  81   38   41 1
  82   42   43 2
  83   42   44 1
  84   44   80 1

#	End of record

