#	Name: ASD01903106
#	Creating user name:	WinNT
#	Creation time:	15. 06. 2019 19:54

#	Modifying user name:	WinNT
#	Modification time:	15. 06. 2019 19:54

#	Program:	/corina/corina34_cracker 3.40 0067  02.08.2006

@<TRIPOS>MOLECULE
ASD01903106
  33   35    0    0    0
SMALL
NO_CHARGES


@<TRIPOS>ATOM
   1 C1            -0.0160     1.2944     0.0217 C.2     
   2 N2             0.0003    -0.0032     0.0042 N.2     
   3 C3            -1.1731    -0.6193     0.0270 C.2     
   4 C4            -2.2472     0.1863     0.0659 C.2     
   5 S5            -1.6841     1.8560     0.0807 S.3     
   6 C6            -1.2922    -2.0997     0.0102 C.2     
   7 N7             1.1051     2.1110     0.0028 N.pl3   
   8 C8            -2.2718    -2.8642     0.6786 C.2     
   9 N9            -2.0511    -4.1257     0.4267 N.2     
  10 N10           -0.9302    -4.2249    -0.4068 N.am    
  11 C11           -0.4792    -2.9640    -0.6578 C.2     
  12 C12            0.9588     3.4913    -0.0934 C.ar    
  13 N13           -0.2456     4.0124    -0.2730 N.ar    
  14 C14           -0.4277     5.3175    -0.3690 C.ar    
  15 C15            0.6429     6.1903    -0.2848 C.ar    
  16 C16            1.9203     5.6821    -0.0968 C.ar    
  17 C17            2.0777     4.3110     0.0057 C.ar    
  18 F18           -1.6741     5.8057    -0.5520 F       
  19 C19           -3.6859    -0.2609     0.0979 C.3     
  20 C20           -0.3951    -5.3669    -0.8821 C.2     
  21 O21            0.5838    -5.3262    -1.6006 O.2     
  22 N22           -0.9459    -6.5542    -0.5604 N.am    
  23 H23            1.9910     1.7197     0.0568 H       
  24 H24           -3.0682    -2.4724     1.2940 H       
  25 H25            0.3714    -2.6991    -1.2683 H       
  26 H26            0.4859     7.2558    -0.3649 H       
  27 H27            2.7723     6.3421    -0.0278 H       
  28 H28            3.0582     3.8826     0.1523 H       
  29 H29           -4.0058    -0.3822     1.1328 H       
  30 H30           -4.3101     0.4879    -0.3899 H       
  31 H31           -3.7826    -1.2117    -0.4261 H       
  32 H32           -1.7275    -6.5868     0.0132 H       
  33 H33           -0.5608    -7.3761    -0.9025 H       
@<TRIPOS>BOND
   1    1    2 2
   2    1    7 1
   3    1    5 1
   4    2    3 1
   5    3    4 2
   6    3    6 1
   7    4    5 1
   8    4   19 1
   9    6    8 1
  10    6   11 2
  11    7   12 1
  12    7   23 1
  13    8    9 2
  14    8   24 1
  15    9   10 1
  16   10   11 1
  17   10   20 am
  18   11   25 1
  19   12   13 ar
  20   12   17 ar
  21   13   14 ar
  22   14   15 ar
  23   14   18 1
  24   15   16 ar
  25   15   26 1
  26   16   17 ar
  27   16   27 1
  28   17   28 1
  29   19   29 1
  30   19   30 1
  31   19   31 1
  32   20   21 2
  33   20   22 am
  34   22   32 1
  35   22   33 1

#	End of record

