#	Name: ASD07930799
#	Creating user name:	WinNT
#	Creation time:	15. 06. 2019 21:13

#	Modifying user name:	WinNT
#	Modification time:	15. 06. 2019 21:13

#	Program:	/corina/corina34_cracker 3.40 0067  02.08.2006

@<TRIPOS>MOLECULE
ASD07930799
  38   40    0    0    0
SMALL
NO_CHARGES


@<TRIPOS>ATOM
   1 C1            -0.0321     1.4605     0.0568 C.3     
   2 N2             0.7683    -0.3824    -2.1509 N.2     
   3 N3            -0.8973    -1.7693    -1.2770 N.pl3   
   4 C4            -0.9005    -2.8248    -0.2586 C.3     
   5 C5            -1.1951    -2.2032     1.1135 C.3     
   6 S6             0.0411    -0.9047     1.4297 S.o2    
   7 N7            -0.0063    -0.0040     0.0286 N.am    
   8 C8            -0.0206    -0.7096    -1.1662 C.2     
   9 C9             0.4681    -3.5081    -0.2267 C.3     
  10 C10           -1.9634    -3.8404    -0.5898 C.ar    
  11 C11           -3.0012    -4.0571     0.2907 C.ar    
  12 C12           -3.9814    -4.9918    -0.0129 C.ar    
  13 C13           -3.9138    -5.7144    -1.2156 C.ar    
  14 C14           -2.8550    -5.4839    -2.0985 C.ar    
  15 C15           -1.8938    -4.5483    -1.7839 C.ar    
  16 F16           -0.8705    -4.3250    -2.6372 F       
  17 N17           -5.1197    -5.4342     0.6336 N.pl3   
  18 C18           -5.6944    -6.3777    -0.1598 C.2     
  19 N19           -4.9899    -6.5421    -1.2413 N.2     
  20 C20           -6.9619    -7.1247     0.1666 C.3     
  21 O21           -0.4095    -0.0151     2.4420 O.2     
  22 O22            1.3519    -1.4526     1.4583 O.2     
  23 F23           -8.0618    -6.2803    -0.0190 F       
  24 F24           -7.0790    -8.2352    -0.6762 F       
  25 F25           -6.9215    -7.5520     1.4982 F       
  26 H26            0.9887     1.8423     0.0410 H       
  27 H27           -0.5722     1.8312    -0.8143 H       
  28 H28           -0.5321     1.7977     0.9649 H       
  29 H29            1.3786     0.3654    -2.0554 H       
  30 H30           -1.5077    -1.8182    -2.0293 H       
  31 H31           -2.1941    -1.7671     1.1124 H       
  32 H32           -1.1290    -2.9695     1.8859 H       
  33 H33            1.2357    -2.7729     0.0148 H       
  34 H34            0.4651    -4.2923     0.5302 H       
  35 H35            0.6785    -3.9458    -1.2026 H       
  36 H36           -3.0515    -3.5010     1.2152 H       
  37 H37           -2.7932    -6.0338    -3.0260 H       
  38 H38           -5.4478    -5.1288     1.4938 H       
@<TRIPOS>BOND
   1    1    7 1
   2    1   26 1
   3    1   27 1
   4    1   28 1
   5    2    8 2
   6    2   29 1
   7    3    4 1
   8    3    8 1
   9    3   30 1
  10    4    5 1
  11    4    9 1
  12    4   10 1
  13    5    6 1
  14    5   31 1
  15    5   32 1
  16    6    7 am
  17    6   21 2
  18    6   22 2
  19    7    8 1
  20    9   33 1
  21    9   34 1
  22    9   35 1
  23   10   11 ar
  24   10   15 ar
  25   11   12 ar
  26   11   36 1
  27   12   13 ar
  28   12   17 1
  29   13   14 ar
  30   13   19 1
  31   14   15 ar
  32   14   37 1
  33   15   16 1
  34   17   18 1
  35   17   38 1
  36   18   19 2
  37   18   20 1
  38   20   24 1
  39   20   25 1
  40   20   23 1

#	End of record

