#	Name: ASD01900977
#	Creating user name:	WinNT
#	Creation time:	15. 06. 2019 19:52

#	Modifying user name:	WinNT
#	Modification time:	15. 06. 2019 19:52

#	Program:	/corina/corina34_cracker 3.40 0067  02.08.2006

@<TRIPOS>MOLECULE
ASD01900977
  52   56    0    0    0
SMALL
NO_CHARGES


@<TRIPOS>ATOM
   1 C1            -0.0226     1.5073    -0.6752 C.ar    
   2 C2            -0.1236     0.1545    -0.4294 C.ar    
   3 C3             0.8483    -0.5010     0.3101 C.ar    
   4 C4             1.9292     0.1933     0.8178 C.ar    
   5 C5             2.0439     1.5536     0.5828 C.ar    
   6 C6             1.0673     2.2204    -0.1765 C.ar    
   7 N7             3.1095     2.2894     1.0945 N.pl3   
   8 C8             3.4979     3.5202     0.4019 C.3     
   9 N9             2.3563     4.2918    -0.0838 N.am    
  10 C10            1.2101     3.6655    -0.4262 C.2     
  11 C11            2.4508     5.6847    -0.1942 C.ar    
  12 C12            2.0466     6.4940     0.8593 C.ar    
  13 C13            2.1401     7.8674     0.7497 C.ar    
  14 C14            2.6377     8.4385    -0.4124 C.ar    
  15 C15            3.0418     7.6307    -1.4652 C.ar    
  16 C16            2.9542     6.2570    -1.3549 C.ar    
  17 O17            0.3008     4.2905    -0.9377 O.2     
  18 O18            2.7291     9.7909    -0.5197 O.3     
  19 C19            4.5223     4.3596     1.1778 C.3     
  20 C20            3.2507    10.3108    -1.7444 C.3     
  21 N21            5.1930     4.5596    -0.1267 N.3     
  22 C22            4.5947     3.3106    -0.6507 C.3     
  23 C23            6.6503     4.4303     0.0053 C.3     
  24 C24            7.2887     4.5293    -1.3562 C.ar    
  25 C25            7.7807     3.3946    -1.9733 C.ar    
  26 C26            8.3659     3.4850    -3.2222 C.ar    
  27 C27            8.4603     4.7105    -3.8556 C.ar    
  28 C28            7.9696     5.8463    -3.2404 C.ar    
  29 C29            7.3775     5.7559    -1.9918 C.ar    
  30 F30            6.8920     6.8648    -1.3920 F       
  31 H31           -0.7815     2.0116    -1.2549 H       
  32 H32           -0.9669    -0.3988    -0.8158 H       
  33 H33            0.7597    -1.5621     0.4910 H       
  34 H34            2.6818    -0.3223     1.3959 H       
  35 H35            3.5819     1.9948     1.8888 H       
  36 H36            1.6588     6.0495     1.7640 H       
  37 H37            1.8254     8.4970     1.5689 H       
  38 H38            3.4291     8.0760    -2.3697 H       
  39 H39            3.2730     5.6280    -2.1730 H       
  40 H40            4.1090     5.2736     1.6043 H       
  41 H41            5.1119     3.7842     1.8915 H       
  42 H42            4.2628     9.9359    -1.8964 H       
  43 H43            2.6173     9.9933    -2.5728 H       
  44 H44            3.2697    11.3996    -1.6981 H       
  45 H45            5.2057     2.4246    -0.4784 H       
  46 H46            4.2391     3.3908    -1.6779 H       
  47 H47            7.0296     5.2285     0.6434 H       
  48 H48            6.8906     3.4645     0.4499 H       
  49 H49            7.7081     2.4369    -1.4792 H       
  50 H50            8.7500     2.5978    -3.7037 H       
  51 H51            8.9180     4.7800    -4.8313 H       
  52 H52            8.0437     6.8034    -3.7352 H       
@<TRIPOS>BOND
   1    1    2 ar
   2    1    6 ar
   3    1   31 1
   4    2    3 ar
   5    2   32 1
   6    3    4 ar
   7    3   33 1
   8    4    5 ar
   9    4   34 1
  10    5    7 1
  11    5    6 ar
  12    6   10 1
  13    7    8 1
  14    7   35 1
  15    8    9 1
  16    8   19 1
  17    8   22 1
  18    9   10 am
  19    9   11 1
  20   10   17 2
  21   11   12 ar
  22   11   16 ar
  23   12   13 ar
  24   12   36 1
  25   13   14 ar
  26   13   37 1
  27   14   15 ar
  28   14   18 1
  29   15   16 ar
  30   15   38 1
  31   16   39 1
  32   18   20 1
  33   19   21 1
  34   19   40 1
  35   19   41 1
  36   20   42 1
  37   20   43 1
  38   20   44 1
  39   21   23 1
  40   21   22 1
  41   22   45 1
  42   22   46 1
  43   23   24 1
  44   23   47 1
  45   23   48 1
  46   24   25 ar
  47   24   29 ar
  48   25   26 ar
  49   25   49 1
  50   26   27 ar
  51   26   50 1
  52   27   28 ar
  53   27   51 1
  54   28   29 ar
  55   28   52 1
  56   29   30 1

#	End of record

