#	Name: ASD03320037
#	Creating user name:	WinNT
#	Creation time:	15. 06. 2019 20:36

#	Modifying user name:	WinNT
#	Modification time:	15. 06. 2019 20:36

#	Program:	/corina/corina34_cracker 3.40 0067  02.08.2006

@<TRIPOS>MOLECULE
ASD03320037
  64   68    0    0    0
SMALL
NO_CHARGES


@<TRIPOS>ATOM
   1 C1            -0.0874     0.3331     0.8258 C.ar    
   2 C2            -0.0291    -1.0486     0.6453 C.ar    
   3 C3             1.0693     1.0805     0.8029 C.ar    
   4 C4             2.3007     0.4544     0.5989 C.ar    
   5 C5             2.3581    -0.9292     0.4183 C.ar    
   6 C6             1.2004    -1.6749     0.4419 C.ar    
   7 C7             3.5427     1.2557     0.5737 C.2     
   8 N8             3.5707     2.4351    -0.0781 N.am    
   9 O9             4.5388     0.8509     1.1408 O.2     
  10 C10           -1.2753    -1.8525     0.6701 C.ar    
  11 C11           -1.2299    -3.2326     0.4911 C.ar    
  12 C12           -2.4308    -3.9417     0.5238 C.ar    
  13 N13           -3.5664    -3.2785     0.7232 N.ar    
  14 C14           -3.5671    -1.9708     0.8885 C.ar    
  15 N15           -2.4562    -1.2653     0.8697 N.ar    
  16 N16           -2.4406    -5.3176     0.3504 N.pl3   
  17 C17           -3.6322    -6.0325     0.5007 C.ar    
  18 C18           -3.8481    -7.1868    -0.2391 C.ar    
  19 C19           -5.0312    -7.8930    -0.0873 C.ar    
  20 C20           -5.9965    -7.4447     0.8032 C.ar    
  21 C21           -5.7800    -6.2949     1.5391 C.ar    
  22 C22           -4.6001    -5.5915     1.3951 C.ar    
  23 C23            4.7605     3.2955    -0.0169 C.3     
  24 C24            5.2240     3.5934    -1.4482 C.3     
  25 N25            4.0653     4.0418    -2.2332 N.am    
  26 C26            2.8754     3.1814    -2.2944 C.3     
  27 C27            2.4141     2.8809    -0.8677 C.3     
  28 C28            4.0933     5.2212    -2.8850 C.2     
  29 C29            5.3356     6.0193    -2.9147 C.ar    
  30 O30            3.0958     5.6281    -3.4485 O.2     
  31 C31            5.3103     7.3721    -2.5621 C.ar    
  32 C32            6.4787     8.1119    -2.5923 C.ar    
  33 C33            7.6672     7.5160    -2.9696 C.ar    
  34 C34            7.6979     6.1767    -3.3196 C.ar    
  35 C35            6.5427     5.4251    -3.2894 C.ar    
  36 F36            4.1485     7.9548    -2.1937 F       
  37 O37           -5.2458    -9.0234    -0.8104 O.3     
  38 C38           -6.4872    -9.7002    -0.6032 C.3     
  39 H39           -1.0403     0.8177     0.9791 H       
  40 H40            1.0238     2.1505     0.9424 H       
  41 H41            3.3100    -1.4143     0.2604 H       
  42 H42            1.2446    -2.7450     0.3026 H       
  43 H43           -0.2903    -3.7404     0.3309 H       
  44 H44           -4.5071    -1.4635     1.0479 H       
  45 H45           -1.6204    -5.7838     0.1250 H       
  46 H46           -3.0958    -7.5340    -0.9319 H       
  47 H47           -6.9184    -7.9948     0.9211 H       
  48 H48           -6.5331    -5.9481     2.2311 H       
  49 H49           -4.4333    -4.6936     1.9715 H       
  50 H50            4.5117     4.2285     0.4888 H       
  51 H51            5.5550     2.7831     0.5257 H       
  52 H52            5.9805     4.3780    -1.4319 H       
  53 H53            5.6400     2.6898    -1.8936 H       
  54 H54            2.0810     3.6938    -2.8370 H       
  55 H55            3.1243     2.2484    -2.8001 H       
  56 H56            1.6576     2.0963    -0.8854 H       
  57 H57            1.9982     3.7834    -0.4199 H       
  58 H58            6.4621     9.1571    -2.3209 H       
  59 H59            8.5767     8.0981    -2.9918 H       
  60 H60            8.6307     5.7184    -3.6133 H       
  61 H61            6.5695     4.3806    -3.5630 H       
  62 H62           -6.5301   -10.5837    -1.2401 H       
  63 H63           -6.5669   -10.0012     0.4414 H       
  64 H64           -7.3114    -9.0320    -0.8527 H       
@<TRIPOS>BOND
   1    1    2 ar
   2    1    3 ar
   3    1   39 1
   4    2   10 1
   5    2    6 ar
   6    3    4 ar
   7    3   40 1
   8    4    5 ar
   9    4    7 1
  10    5    6 ar
  11    5   41 1
  12    6   42 1
  13    7    8 am
  14    7    9 2
  15    8   23 1
  16    8   27 1
  17   10   11 ar
  18   10   15 ar
  19   11   12 ar
  20   11   43 1
  21   12   13 ar
  22   12   16 1
  23   13   14 ar
  24   14   15 ar
  25   14   44 1
  26   16   17 1
  27   16   45 1
  28   17   18 ar
  29   17   22 ar
  30   18   19 ar
  31   18   46 1
  32   19   20 ar
  33   19   37 1
  34   20   21 ar
  35   20   47 1
  36   21   22 ar
  37   21   48 1
  38   22   49 1
  39   23   24 1
  40   23   50 1
  41   23   51 1
  42   24   25 1
  43   24   52 1
  44   24   53 1
  45   25   26 1
  46   25   28 am
  47   26   27 1
  48   26   54 1
  49   26   55 1
  50   27   56 1
  51   27   57 1
  52   28   29 1
  53   28   30 2
  54   29   31 ar
  55   29   35 ar
  56   31   32 ar
  57   31   36 1
  58   32   33 ar
  59   32   58 1
  60   33   34 ar
  61   33   59 1
  62   34   35 ar
  63   34   60 1
  64   35   61 1
  65   37   38 1
  66   38   62 1
  67   38   63 1
  68   38   64 1

#	End of record

