#	Name: ASD01884570
#	Creating user name:	WinNT
#	Creation time:	15. 06. 2019 19:48

#	Modifying user name:	WinNT
#	Modification time:	15. 06. 2019 19:48

#	Program:	/corina/corina34_cracker 3.40 0067  02.08.2006

@<TRIPOS>MOLECULE
ASD01884570
  52   55    0    0    0
SMALL
NO_CHARGES


@<TRIPOS>ATOM
   1 C1            -0.0164     1.3576     0.0095 C.2     
   2 C2             0.0021    -0.0041     0.0020 C.2     
   3 C3             1.2440    -0.6751    -0.0134 C.2     
   4 C4             2.4024     0.0465    -0.0206 C.2     
   5 N5             2.3700     1.4024    -0.0126 N.am    
   6 C6             1.1986     2.0652     0.0017 C.2     
   7 O7             1.1911     3.2857     0.0083 O.2     
   8 C8             3.6266     2.1554    -0.0196 C.3     
   9 C9             4.0447     2.4218    -1.4427 C.ar    
  10 C10            1.2897    -2.1584    -0.0214 C.ar    
  11 C11            0.8124    -2.8774     1.0728 C.ar    
  12 C12            1.8048    -2.8351    -1.1254 C.ar    
  13 C13            1.8460    -4.2138    -1.1298 C.ar    
  14 C14            1.3747    -4.9272    -0.0363 C.ar    
  15 C15            0.8562    -4.2560     1.0626 C.ar    
  16 O16            1.4158    -6.2856    -0.0439 O.3     
  17 C17            0.9144    -6.9563     1.1140 C.3     
  18 C18            3.6249     3.5686    -2.0902 C.ar    
  19 N19            3.9836     3.8130    -3.3344 N.ar    
  20 C20            4.7572     2.9751    -4.0125 C.ar    
  21 C21            5.2169     1.7996    -3.4212 C.ar    
  22 C22            4.8597     1.5206    -2.1138 C.ar    
  23 C23            5.1355     3.2916    -5.4108 C.ar    
  24 C24            4.6793     4.4652    -6.0093 C.ar    
  25 C25            5.0332     4.7570    -7.3096 C.ar    
  26 C26            5.8430     3.8832    -8.0229 C.ar    
  27 C27            6.2989     2.7135    -7.4296 C.ar    
  28 C28            5.9528     2.4188    -6.1279 C.ar    
  29 O29            6.1896     4.1731    -9.3040 O.3     
  30 C30            7.0249     3.2306    -9.9792 C.3     
  31 H31           -0.9563     1.8895     0.0169 H       
  32 H32           -0.9217    -0.5635     0.0082 H       
  33 H33            3.3528    -0.4664    -0.0325 H       
  34 H34            3.4854     3.1026     0.5010 H       
  35 H35            4.4003     1.5759     0.4840 H       
  36 H36            0.4089    -2.3558     1.9281 H       
  37 H37            2.1710    -2.2806    -1.9768 H       
  38 H38            2.2451    -4.7388    -1.9851 H       
  39 H39            0.4906    -4.8137     1.9121 H       
  40 H40            1.4892    -6.6507     1.9883 H       
  41 H41           -0.1340    -6.6958     1.2593 H       
  42 H42            1.0055    -8.0339     0.9777 H       
  43 H43            2.9941     4.2737    -1.5693 H       
  44 H44            5.8459     1.1180    -3.9744 H       
  45 H45            5.2006     0.6176    -1.6291 H       
  46 H46            4.0492     5.1450    -5.4551 H       
  47 H47            4.6798     5.6658    -7.7738 H       
  48 H48            6.9284     2.0356    -7.9870 H       
  49 H49            6.3080     1.5091    -5.6668 H       
  50 H50            7.2255     3.5825   -10.9912 H       
  51 H51            7.9653     3.1254    -9.4381 H       
  52 H52            6.5212     2.2650   -10.0235 H       
@<TRIPOS>BOND
   1    1    2 2
   2    1    6 1
   3    1   31 1
   4    2    3 1
   5    2   32 1
   6    3    4 2
   7    3   10 1
   8    4    5 1
   9    4   33 1
  10    5    6 am
  11    5    8 1
  12    6    7 2
  13    8    9 1
  14    8   34 1
  15    8   35 1
  16    9   18 ar
  17    9   22 ar
  18   10   11 ar
  19   10   12 ar
  20   11   15 ar
  21   11   36 1
  22   12   13 ar
  23   12   37 1
  24   13   14 ar
  25   13   38 1
  26   14   15 ar
  27   14   16 1
  28   15   39 1
  29   16   17 1
  30   17   40 1
  31   17   41 1
  32   17   42 1
  33   18   19 ar
  34   18   43 1
  35   19   20 ar
  36   20   21 ar
  37   20   23 1
  38   21   22 ar
  39   21   44 1
  40   22   45 1
  41   23   24 ar
  42   23   28 ar
  43   24   25 ar
  44   24   46 1
  45   25   26 ar
  46   25   47 1
  47   26   27 ar
  48   26   29 1
  49   27   28 ar
  50   27   48 1
  51   28   49 1
  52   29   30 1
  53   30   50 1
  54   30   51 1
  55   30   52 1

#	End of record

