#	Name: ASD01901410
#	Creating user name:	WinNT
#	Creation time:	15. 06. 2019 19:53

#	Modifying user name:	WinNT
#	Modification time:	15. 06. 2019 19:53

#	Program:	/corina/corina34_cracker 3.40 0067  02.08.2006

@<TRIPOS>MOLECULE
ASD01901410
  37   40    0    0    0
SMALL
NO_CHARGES


@<TRIPOS>ATOM
   1 C1            -0.0169     1.3914     0.0097 C.ar    
   2 C2             1.1721     2.0956     0.0021 C.ar    
   3 C3             2.3801     1.4178    -0.0135 C.ar    
   4 C4             2.4023     0.0327    -0.0212 C.ar    
   5 C5             1.2200    -0.6795    -0.0137 C.ar    
   6 C6             0.0021    -0.0041     0.0020 C.ar    
   7 C7            -1.2716    -0.7659     0.0101 C.2     
   8 N8            -3.1799    -1.5355    -1.1478 N.2     
   9 C9            -2.0559    -0.8616    -1.1600 C.2     
  10 C10           -1.6990    -1.3894     1.1488 C.2     
  11 N11           -2.8740    -2.0810     1.1217 N.pl3   
  12 C12           -3.6100    -2.1457    -0.0332 C.2     
  13 C13           -3.5519    -2.7935     2.0738 C.2     
  14 C14           -4.6712    -3.2714     1.4895 C.2     
  15 N15           -4.6920    -2.8700     0.2151 N.2     
  16 C16           -5.7219    -4.1166     2.1623 C.3     
  17 O17           -5.3535    -4.3392     3.5250 O.3     
  18 C18           -6.1989    -5.0877     4.2772 C.ar    
  19 C19           -5.8980    -5.3342     5.6108 C.ar    
  20 N20           -7.3042    -5.5711     3.7353 N.ar    
  21 C21           -8.1536    -6.3031     4.4311 C.ar    
  22 C22           -7.9156    -6.5919     5.7598 C.ar    
  23 C23           -6.7688    -6.0987     6.3672 C.ar    
  24 F24           -1.1950     2.0524     0.0301 F       
  25 F25            3.5404     2.1098    -0.0218 F       
  26 H26            1.1596     3.1755     0.0080 H       
  27 H27            3.3467    -0.4910    -0.0334 H       
  28 H28            1.2394    -1.7593    -0.0204 H       
  29 H29           -1.7286    -0.3775    -2.0682 H       
  30 H30           -1.1151    -1.3355     2.0557 H       
  31 H31           -3.2485    -2.9451     3.0992 H       
  32 H32           -6.6816    -3.6011     2.1250 H       
  33 H33           -5.8032    -5.0736     1.6469 H       
  34 H34           -4.9964    -4.9349     6.0513 H       
  35 H35           -9.0464    -6.6807     3.9550 H       
  36 H36           -8.6162    -7.1915     6.3220 H       
  37 H37           -6.5608    -6.3072     7.4063 H       
@<TRIPOS>BOND
   1    1    6 ar
   2    1    2 ar
   3    1   24 1
   4    2    3 ar
   5    2   26 1
   6    3    4 ar
   7    3   25 1
   8    4    5 ar
   9    4   27 1
  10    5    6 ar
  11    5   28 1
  12    6    7 1
  13    7   10 2
  14    7    9 1
  15    8    9 2
  16    8   12 1
  17    9   29 1
  18   10   11 1
  19   10   30 1
  20   11   13 1
  21   11   12 1
  22   12   15 2
  23   13   14 2
  24   13   31 1
  25   14   15 1
  26   14   16 1
  27   16   17 1
  28   16   32 1
  29   16   33 1
  30   17   18 1
  31   18   20 ar
  32   18   19 ar
  33   19   23 ar
  34   19   34 1
  35   20   21 ar
  36   21   22 ar
  37   21   35 1
  38   22   23 ar
  39   22   36 1
  40   23   37 1

#	End of record

