#	Name: ASD00310321
#	Creating user name:	WinNT
#	Creation time:	15. 06. 2019 18:34

#	Modifying user name:	WinNT
#	Modification time:	15. 06. 2019 18:34

#	Program:	/corina/corina34_cracker 3.40 0067  02.08.2006

@<TRIPOS>MOLECULE
ASD00310321
  38   40    0    0    0
SMALL
NO_CHARGES


@<TRIPOS>ATOM
   1 C1            -0.0184     1.5028     0.0103 C.2     
   2 C2             0.0021    -0.0041     0.0020 C.3     
   3 C3             1.4513    -0.4944    -0.0145 C.3     
   4 O4             1.0197     2.1211     0.0037 O.2     
   5 O5            -1.1898     2.1580     0.0194 O.3     
   6 O6             1.4707    -1.9232    -0.0223 O.3     
   7 C7             2.6896    -2.5236    -0.0372 C.ar    
   8 C8             2.7795    -3.9089    -0.0455 C.ar    
   9 C9             4.0152    -4.5211    -0.0610 C.ar    
  10 C10            5.1746    -3.7475    -0.0684 C.ar    
  11 C11            5.0812    -2.3568    -0.0600 C.ar    
  12 C12            3.8425    -1.7504    -0.0498 C.ar    
  13 N13           10.2886    -6.0705    -0.3334 N.pl3   
  14 C14           10.8351    -5.3849    -1.3556 C.2     
  15 C15            9.9236    -4.4717    -1.8408 C.2     
  16 C16            8.7058    -4.6308    -1.0206 C.ar    
  17 C17            7.4613    -4.0114    -1.0137 C.ar    
  18 C18            6.5054    -4.4029    -0.0846 C.ar    
  19 C19            6.7980    -5.4150     0.8359 C.ar    
  20 C20            8.0297    -6.0291     0.8303 C.ar    
  21 C21            8.9971    -5.6460    -0.0953 C.ar    
  22 C22           10.1164    -3.5629    -2.9109 C.2     
  23 O23           11.1759    -3.5385    -3.5031 O.2     
  24 Cl24           5.5990    -5.8993     1.9941 Cl      
  25 H25           -0.4983    -0.3791     0.8948 H       
  26 H26           -0.5153    -0.3696    -0.8850 H       
  27 H27            1.9516    -0.1193    -0.9073 H       
  28 H28            1.9686    -0.1289     0.8726 H       
  29 H29           -1.1523     3.1243     0.0245 H       
  30 H30            1.8808    -4.5078    -0.0394 H       
  31 H31            4.0845    -5.5988    -0.0671 H       
  32 H32            5.9778    -1.7548    -0.0657 H       
  33 H33            3.7694    -0.6728    -0.0478 H       
  34 H34           10.7396    -6.7701     0.1647 H       
  35 H35           11.8354    -5.5282    -1.7367 H       
  36 H36            7.2394    -3.2299    -1.7253 H       
  37 H37            8.2464    -6.8092     1.5451 H       
  38 H38            9.3208    -2.8920    -3.1995 H       
@<TRIPOS>BOND
   1    1    2 1
   2    1    4 2
   3    1    5 1
   4    2    3 1
   5    2   25 1
   6    2   26 1
   7    3    6 1
   8    3   27 1
   9    3   28 1
  10    5   29 1
  11    6    7 1
  12    7    8 ar
  13    7   12 ar
  14    8    9 ar
  15    8   30 1
  16    9   10 ar
  17    9   31 1
  18   10   11 ar
  19   10   18 1
  20   11   12 ar
  21   11   32 1
  22   12   33 1
  23   13   14 1
  24   13   21 1
  25   13   34 1
  26   14   15 2
  27   14   35 1
  28   15   16 1
  29   15   22 1
  30   16   17 ar
  31   16   21 ar
  32   17   18 ar
  33   17   36 1
  34   18   19 ar
  35   19   20 ar
  36   19   24 1
  37   20   21 ar
  38   20   37 1
  39   22   23 2
  40   22   38 1

#	End of record

