#	Name: ASD02198543
#	Creating user name:	WinNT
#	Creation time:	15. 06. 2019 20:19

#	Modifying user name:	WinNT
#	Modification time:	15. 06. 2019 20:19

#	Program:	/corina/corina34_cracker 3.40 0067  02.08.2006

@<TRIPOS>MOLECULE
ASD02198543
  40   43    0    0    0
SMALL
NO_CHARGES


@<TRIPOS>ATOM
   1 C1            -0.6488     0.7248    -2.5502 C.2     
   2 C2            -0.2721    -0.5384    -2.2280 C.2     
   3 N3             0.8483    -0.7653    -1.5059 N.pl3   
   4 N4             1.6157     0.1705    -1.0836 N.2     
   5 C5             1.3671     1.4411    -1.3254 C.2     
   6 C6             0.1681     1.7918    -2.1060 C.2     
   7 C7             1.1867    -2.0884    -1.2038 C.ar    
   8 C8             0.5646    -4.2587    -0.3951 C.ar    
   9 C9             1.8566    -4.7056    -0.6054 C.ar    
  10 C10            2.8155    -3.8461    -1.1091 C.ar    
  11 C11            2.4846    -2.5391    -1.4089 C.ar    
  12 C12            2.2704     2.4913    -0.8244 C.2     
  13 C13            3.3489     2.3199     0.0217 C.2     
  14 N14            3.8922     3.5389     0.2198 N.2     
  15 C15            3.2087     4.4200    -0.4514 C.2     
  16 O16            2.2110     3.8117    -1.1065 O.3     
  17 C17            3.8193     1.0407     0.6016 C.ar    
  18 C18            2.9042     0.1418     1.1494 C.ar    
  19 O19           -0.1096     2.9545    -2.3589 O.2     
  20 C20            5.1785     0.7275     0.5969 C.ar    
  21 C21            5.6105    -0.4659     1.1382 C.ar    
  22 C22            4.6984    -1.3512     1.6845 C.ar    
  23 C23            3.3485    -1.0484     1.6878 C.ar    
  24 C24            0.2270    -2.9533    -0.6926 C.ar    
  25 F25           -0.1183    -6.5180    -0.1449 F       
  26 F26           -0.5630    -5.0419     1.5410 F       
  27 C27           -0.4772    -5.1992     0.1536 C.3     
  28 F28           -1.7174    -4.9108    -0.4261 F       
  29 H29           -1.5407     0.9096    -3.1306 H       
  30 H30           -0.8752    -1.3735    -2.5524 H       
  31 H31            2.1171    -5.7282    -0.3754 H       
  32 H32            3.8234    -4.1982    -1.2719 H       
  33 H33            3.2339    -1.8683    -1.8026 H       
  34 H34            3.4166     5.4795    -0.4791 H       
  35 H35            1.8502     0.3771     1.1526 H       
  36 H36            5.8913     1.4176     0.1701 H       
  37 H37            6.6626    -0.7095     1.1352 H       
  38 H38            5.0413    -2.2844     2.1064 H       
  39 H39            2.6414    -1.7434     2.1159 H       
  40 H40           -0.7819    -2.6049    -0.5278 H       
@<TRIPOS>BOND
   1    1    2 2
   2    1    6 1
   3    1   29 1
   4    2    3 1
   5    2   30 1
   6    3    4 1
   7    3    7 1
   8    4    5 2
   9    5    6 1
  10    5   12 1
  11    6   19 2
  12    7   24 ar
  13    7   11 ar
  14    8    9 ar
  15    8   27 1
  16    8   24 ar
  17    9   10 ar
  18    9   31 1
  19   10   11 ar
  20   10   32 1
  21   11   33 1
  22   12   13 2
  23   12   16 1
  24   13   14 1
  25   13   17 1
  26   14   15 2
  27   15   16 1
  28   15   34 1
  29   17   20 ar
  30   17   18 ar
  31   18   23 ar
  32   18   35 1
  33   20   21 ar
  34   20   36 1
  35   21   22 ar
  36   21   37 1
  37   22   23 ar
  38   22   38 1
  39   23   39 1
  40   24   40 1
  41   25   27 1
  42   26   27 1
  43   27   28 1

#	End of record

