#	Name: ASD01870685
#	Creating user name:	WinNT
#	Creation time:	15. 06. 2019 19:39

#	Modifying user name:	WinNT
#	Modification time:	15. 06. 2019 19:39

#	Program:	/corina/corina34_cracker 3.40 0067  02.08.2006

@<TRIPOS>MOLECULE
ASD01870685
  42   45    0    0    0
SMALL
NO_CHARGES


@<TRIPOS>ATOM
   1 C1            -0.0175     1.4474     0.0142 C.2     
   2 C2             0.0020    -0.0040    -0.0009 C.2     
   3 C3             1.2279    -0.5353    -0.0717 C.2     
   4 S4             2.4386     0.6590    -0.1251 S.3     
   5 C5             1.2695     1.9671    -0.0498 C.2     
   6 C6            -1.2302    -0.8268     0.0581 C.ar    
   7 C7            -2.1563    -0.7808    -0.9890 C.ar    
   8 C8            -3.3041    -1.5527    -0.9260 C.ar    
   9 C9            -3.5330    -2.3660     0.1688 C.ar    
  10 C10           -2.6191    -2.4138     1.2059 C.ar    
  11 C11           -1.4678    -1.6532     1.1536 C.ar    
  12 N12           -1.0678     2.3088     0.0841 N.2     
  13 C13            1.4391     3.3733    -0.0446 C.2     
  14 N14            0.3430     4.1566     0.0225 N.am    
  15 C15           -0.8943     3.5946     0.0862 C.2     
  16 C16            0.4791     5.5517     0.0294 C.ar    
  17 C17            1.0629     6.1872     1.1172 C.ar    
  18 C18            1.1972     7.5613     1.1232 C.ar    
  19 C19            0.7485     8.3072     0.0428 C.ar    
  20 C20            0.1650     7.6728    -1.0445 C.ar    
  21 C21            0.0354     6.2982    -1.0541 C.ar    
  22 O22            2.5536     3.8659    -0.0992 O.2     
  23 O23            0.8801     9.6602     0.0497 O.3     
  24 C24            0.3964    10.3649    -1.0955 C.3     
  25 O25           -1.9307     0.0191    -2.0642 O.3     
  26 C26           -2.9202     0.0147    -3.0951 C.3     
  27 H27            1.4256    -1.5968    -0.0923 H       
  28 H28           -4.0215    -1.5193    -1.7326 H       
  29 H29           -4.4296    -2.9663     0.2144 H       
  30 H30           -2.8047    -3.0513     2.0577 H       
  31 H31           -0.7543    -1.6960     1.9633 H       
  32 H32           -1.7591     4.2390     0.1428 H       
  33 H33            1.4116     5.6068     1.9586 H       
  34 H34            1.6513     8.0557     1.9692 H       
  35 H35           -0.1841     8.2539    -1.8852 H       
  36 H36           -0.4150     5.8042    -1.9023 H       
  37 H37            0.9281    10.0234    -1.9836 H       
  38 H38           -0.6703    10.1751    -1.2152 H       
  39 H39            0.5623    11.4338    -0.9612 H       
  40 H40           -3.0223    -0.9936    -3.4965 H       
  41 H41           -3.8754     0.3403    -2.6833 H       
  42 H42           -2.6177     0.6941    -3.8921 H       
@<TRIPOS>BOND
   1    1    2 1
   2    1    5 2
   3    1   12 1
   4    2    3 2
   5    2    6 1
   6    3    4 1
   7    3   27 1
   8    4    5 1
   9    5   13 1
  10    6    7 ar
  11    6   11 ar
  12    7    8 ar
  13    7   25 1
  14    8    9 ar
  15    8   28 1
  16    9   10 ar
  17    9   29 1
  18   10   11 ar
  19   10   30 1
  20   11   31 1
  21   12   15 2
  22   13   14 am
  23   13   22 2
  24   14   15 1
  25   14   16 1
  26   15   32 1
  27   16   17 ar
  28   16   21 ar
  29   17   18 ar
  30   17   33 1
  31   18   19 ar
  32   18   34 1
  33   19   20 ar
  34   19   23 1
  35   20   21 ar
  36   20   35 1
  37   21   36 1
  38   23   24 1
  39   24   37 1
  40   24   38 1
  41   24   39 1
  42   25   26 1
  43   26   40 1
  44   26   41 1
  45   26   42 1

#	End of record

