#	Name: ASD01815908
#	Creating user name:	WinNT
#	Creation time:	15. 06. 2019 19:34

#	Modifying user name:	WinNT
#	Modification time:	15. 06. 2019 19:34

#	Program:	/corina/corina34_cracker 3.40 0067  02.08.2006

@<TRIPOS>MOLECULE
ASD01815908
  54   59    0    0    0
SMALL
NO_CHARGES


@<TRIPOS>ATOM
   1 C1            -0.0756     1.3135     0.1757 C.ar    
   2 C2            -0.0315    -0.0710     0.1637 C.ar    
   3 C3             1.1769    -0.7363     0.0951 C.ar    
   4 C4             2.3673    -0.0165     0.0365 C.ar    
   5 C5             2.3197     1.3868     0.0483 C.ar    
   6 C6             1.0945     2.0467     0.1183 C.ar    
   7 N7             3.5823    -0.6780    -0.0320 N.pl3   
   8 C8             4.7607    -0.0376    -0.0904 C.2     
   9 C9             4.8384     1.3331    -0.0860 C.2     
  10 C10            3.5924     2.1299    -0.0145 C.2     
  11 C11            5.9163     2.3159    -0.1369 C.2     
  12 N12            5.3224     3.5282    -0.0978 N.am    
  13 N13            3.9344     3.3863    -0.0248 N.2     
  14 C14            6.0012     4.7530    -0.1252 C.ar    
  15 O15            7.1134     2.0880    -0.2013 O.2     
  16 C16            3.5814    -2.1429    -0.0406 C.3     
  17 C17            3.7089    -2.6537     1.3714 C.ar    
  18 C18            2.5845    -2.7673     2.1683 C.ar    
  19 C19            2.6982    -3.2346     3.4630 C.ar    
  20 C20            3.9430    -3.5909     3.9641 C.ar    
  21 C21            5.0701    -3.4762     3.1615 C.ar    
  22 C22            4.9493    -3.0131     1.8658 C.ar    
  23 N23            4.0618    -4.0651     5.2779 N.pl3   
  24 C24            5.2082    -4.4444     5.8866 C.2     
  25 F25            1.0505     3.3969     0.1291 F       
  26 F26            1.2039    -2.0870     0.0851 F       
  27 C27            4.8967    -4.8361     7.1438 C.2     
  28 C28            3.5149    -4.6918     7.3101 C.2     
  29 N29            3.0146    -4.2243     6.1948 N.2     
  30 C30            5.7879     5.6909     0.8793 C.ar    
  31 C31            6.8930     5.0315    -1.1523 C.ar    
  32 C32            7.3431     7.1738    -0.1800 C.ar    
  33 C33            6.4604     6.8991     0.8482 C.ar    
  34 F34            4.9250     5.4224     1.8836 F       
  35 C35            7.5610     6.2403    -1.1768 C.ar    
  36 C36            6.2261     7.9193     1.9323 C.3     
  37 H37           -1.0273     1.8215     0.2255 H       
  38 H38           -0.9511    -0.6356     0.2089 H       
  39 H39            5.6714    -0.6158    -0.1419 H       
  40 H40            2.6486    -2.5032    -0.4745 H       
  41 H41            4.4214    -2.5033    -0.6346 H       
  42 H42            1.6164    -2.4900     1.7779 H       
  43 H43            1.8198    -3.3225     4.0851 H       
  44 H44            6.0398    -3.7522     3.5486 H       
  45 H45            5.8256    -2.9236     1.2410 H       
  46 H46            6.1950    -4.4368     5.4478 H       
  47 H47            5.5919    -5.1964     7.8876 H       
  48 H48            2.9578    -4.9223     8.2061 H       
  49 H49            7.0646     4.3034    -1.9313 H       
  50 H50            7.8671     8.1179    -0.2022 H       
  51 H51            8.2547     6.4568    -1.9758 H       
  52 H52            5.4028     8.5730     1.6442 H       
  53 H53            5.9769     7.4098     2.8631 H       
  54 H54            7.1291     8.5132     2.0737 H       
@<TRIPOS>BOND
   1    1    2 ar
   2    1    6 ar
   3    1   37 1
   4    2    3 ar
   5    2   38 1
   6    3    4 ar
   7    3   26 1
   8    4    5 ar
   9    4    7 1
  10    5    6 ar
  11    5   10 1
  12    6   25 1
  13    7    8 1
  14    7   16 1
  15    8    9 2
  16    8   39 1
  17    9   10 1
  18    9   11 1
  19   10   13 2
  20   11   12 am
  21   11   15 2
  22   12   13 1
  23   12   14 1
  24   14   30 ar
  25   14   31 ar
  26   16   17 1
  27   16   40 1
  28   16   41 1
  29   17   18 ar
  30   17   22 ar
  31   18   19 ar
  32   18   42 1
  33   19   20 ar
  34   19   43 1
  35   20   21 ar
  36   20   23 1
  37   21   22 ar
  38   21   44 1
  39   22   45 1
  40   23   24 1
  41   23   29 1
  42   24   27 2
  43   24   46 1
  44   27   28 1
  45   27   47 1
  46   28   29 2
  47   28   48 1
  48   30   34 1
  49   30   33 ar
  50   31   35 ar
  51   31   49 1
  52   32   33 ar
  53   32   35 ar
  54   32   50 1
  55   33   36 1
  56   35   51 1
  57   36   52 1
  58   36   53 1
  59   36   54 1

#	End of record

