#	Name: ASD01815949
#	Creating user name:	WinNT
#	Creation time:	15. 06. 2019 19:34

#	Modifying user name:	WinNT
#	Modification time:	15. 06. 2019 19:34

#	Program:	/corina/corina34_cracker 3.40 0067  02.08.2006

@<TRIPOS>MOLECULE
ASD01815949
  55   60    0    0    0
SMALL
NO_CHARGES


@<TRIPOS>ATOM
   1 C1             1.1838     2.2595    -0.5286 C.ar    
   2 C2             0.8005     0.9284    -0.5122 C.ar    
   3 C3             1.7392    -0.0726    -0.3552 C.ar    
   4 C4             3.0860     0.2502    -0.2118 C.ar    
   5 C5             3.4717     1.6003    -0.2293 C.ar    
   6 C6             2.5154     2.6011    -0.3879 C.ar    
   7 N7             4.0320    -0.7490    -0.0535 N.pl3   
   8 C8             5.3430    -0.4982     0.0895 C.2     
   9 C9             5.8373     0.7827     0.0880 C.2     
  10 C10            4.9035     1.9201    -0.0758 C.2     
  11 C11            7.1583     1.3900     0.2159 C.2     
  12 N12            6.9688     2.7245     0.1310 N.am    
  13 N13            5.6126     3.0119    -0.0430 N.2     
  14 C14            7.9867     3.6836     0.2061 C.ar    
  15 O15            8.2203     0.8089     0.3694 O.2     
  16 C16            3.5814    -2.1429    -0.0411 C.3     
  17 C17            3.4352    -2.6362    -1.4576 C.ar    
  18 C18            4.5171    -2.5904    -2.3207 C.ar    
  19 C19            4.3843    -3.0425    -3.6217 C.ar    
  20 C20            3.1660    -3.5420    -4.0596 C.ar    
  21 C21            2.0837    -3.5866    -3.1908 C.ar    
  22 C22            2.2226    -3.1390    -1.8916 C.ar    
  23 F23            2.8883     3.8996    -0.4045 F       
  24 F24            1.3501    -1.3662    -0.3403 F       
  25 C25            8.7035     4.0284    -0.9319 C.ar    
  26 C26            9.7068     4.9745    -0.8548 C.ar    
  27 C27            9.9988     5.5792     0.3542 C.ar    
  28 C28            9.2881     5.2395     1.4905 C.ar    
  29 C29            8.2782     4.2971     1.4198 C.ar    
  30 F30            7.5835     3.9650     2.5299 F       
  31 F31            5.7025    -2.1038    -1.8926 F       
  32 N32            3.0279    -4.0006    -5.3777 N.pl3   
  33 N33            3.9513    -4.0119    -6.2745 N.2     
  34 N34            3.4962    -4.4960    -7.3756 N.2     
  35 C35            2.2099    -4.8240    -7.2100 C.2     
  36 C36            1.8957    -4.5167    -5.9296 C.2     
  37 C37            1.2921    -5.4230    -8.2443 C.3     
  38 N38            0.7098    -4.3506    -9.0621 N.3     
  39 H39            0.4402     3.0323    -0.6562 H       
  40 H40           -0.2424     0.6708    -0.6229 H       
  41 H41            6.0268    -1.3256     0.2091 H       
  42 H42            4.3135    -2.7568     0.4836 H       
  43 H43            2.6198    -2.2094     0.4678 H       
  44 H44            5.2275    -3.0064    -4.2955 H       
  45 H45            1.1346    -3.9747    -3.5299 H       
  46 H46            1.3806    -3.1743    -1.2162 H       
  47 H47            8.4769     3.5568    -1.8767 H       
  48 H48           10.2644     5.2423    -1.7401 H       
  49 H49           10.7842     6.3184     0.4110 H       
  50 H50            9.5189     5.7134     2.4332 H       
  51 H51            0.9389    -4.6481    -5.4461 H       
  52 H52            1.8581    -6.1007    -8.8835 H       
  53 H53            0.4943    -5.9743    -7.7466 H       
  54 H54            0.0900    -4.7269    -9.7638 H       
  55 H55            0.2339    -3.6735    -8.4849 H       
@<TRIPOS>BOND
   1    1    2 ar
   2    1    6 ar
   3    1   39 1
   4    2    3 ar
   5    2   40 1
   6    3    4 ar
   7    3   24 1
   8    4    5 ar
   9    4    7 1
  10    5    6 ar
  11    5   10 1
  12    6   23 1
  13    7    8 1
  14    7   16 1
  15    8    9 2
  16    8   41 1
  17    9   10 1
  18    9   11 1
  19   10   13 2
  20   11   12 am
  21   11   15 2
  22   12   13 1
  23   12   14 1
  24   14   25 ar
  25   14   29 ar
  26   16   17 1
  27   16   42 1
  28   16   43 1
  29   17   18 ar
  30   17   22 ar
  31   18   19 ar
  32   18   31 1
  33   19   20 ar
  34   19   44 1
  35   20   21 ar
  36   20   32 1
  37   21   22 ar
  38   21   45 1
  39   22   46 1
  40   25   26 ar
  41   25   47 1
  42   26   27 ar
  43   26   48 1
  44   27   28 ar
  45   27   49 1
  46   28   29 ar
  47   28   50 1
  48   29   30 1
  49   32   33 1
  50   32   36 1
  51   33   34 2
  52   34   35 1
  53   35   36 2
  54   35   37 1
  55   36   51 1
  56   37   38 1
  57   37   52 1
  58   37   53 1
  59   38   54 1
  60   38   55 1

#	End of record

