#	Name: ASD01884795
#	Creating user name:	WinNT
#	Creation time:	15. 06. 2019 19:48

#	Modifying user name:	WinNT
#	Modification time:	15. 06. 2019 19:48

#	Program:	/corina/corina34_cracker 3.40 0067  02.08.2006

@<TRIPOS>MOLECULE
ASD01884795
  46   49    0    0    0
SMALL
NO_CHARGES


@<TRIPOS>ATOM
   1 C1            -0.6651     0.9592     0.2612 C.3     
   2 C2            -0.4191    -0.5421     0.4240 C.3     
   3 H3            -1.3468    -1.0330     0.7179 H       
   4 C4             0.0692    -1.1257    -0.9014 C.3     
   5 N5             0.6178    -2.4695    -0.7534 N.am    
   6 C6             1.3952    -2.8063     0.3041 C.2     
   7 O7             2.0149    -3.8520     0.3377 O.2     
   8 C8             1.4484    -1.8342     1.4117 C.2     
   9 C9             2.2555    -1.7673     2.5268 C.2     
  10 C10            1.8767    -0.6100     3.2383 C.2     
  11 N11            0.8986    -0.0223     2.5908 N.2     
  12 N12            0.5980    -0.7617     1.4547 N.pl3   
  13 C13            3.3150    -2.7245     2.9044 C.2     
  14 O14            3.5434    -3.6878     2.1990 O.2     
  15 N15            4.0286    -2.5300     4.0311 N.am    
  16 C16            4.9610    -3.4833     4.4392 C.ar    
  17 C17            5.7000    -4.2070     3.5042 C.ar    
  18 C18            6.6128    -5.1406     3.9489 C.ar    
  19 N19            6.7903    -5.3520     5.2394 N.ar    
  20 C20            6.1105    -4.6876     6.1549 C.ar    
  21 C21            5.1827    -3.7333     5.7927 C.ar    
  22 C22            0.3342    -3.4330    -1.7258 C.ar    
  23 C23           -0.4603    -4.5278    -1.4101 C.ar    
  24 C24           -0.7389    -5.4775    -2.3732 C.ar    
  25 C25           -0.2279    -5.3395    -3.6508 C.ar    
  26 C26            0.5634    -4.2508    -3.9684 C.ar    
  27 C27            0.8416    -3.2947    -3.0115 C.ar    
  28 C28           -0.5336    -6.3781    -4.6990 C.3     
  29 F29           -1.7029    -6.0231    -5.3802 F       
  30 F30            0.5295    -6.4531    -5.6053 F       
  31 F31           -0.7114    -7.6224    -4.0847 F       
  32 H32            0.2628     1.4497    -0.0327 H       
  33 H33           -1.4213     1.1222    -0.5068 H       
  34 H34           -1.0123     1.3752     1.2070 H       
  35 H35           -0.7667    -1.1614    -1.6000 H       
  36 H36            0.8405    -0.4733    -1.3109 H       
  37 H37            2.3179    -0.2654     4.1619 H       
  38 H38            3.8936    -1.7270     4.5581 H       
  39 H39            5.5594    -4.0391     2.4467 H       
  40 H40            7.1894    -5.7061     3.2318 H       
  41 H41            6.2858    -4.8908     7.2010 H       
  42 H42            4.6331    -3.1898     6.5471 H       
  43 H43           -0.8594    -4.6363    -0.4124 H       
  44 H44           -1.3563    -6.3291    -2.1283 H       
  45 H45            0.9612    -4.1462    -4.9670 H       
  46 H46            1.4562    -2.4426    -3.2613 H       
@<TRIPOS>BOND
   1    1    2 1
   2    1   32 1
   3    1   33 1
   4    1   34 1
   5    2    3 1
   6    2   12 1
   7    2    4 1
   8    4    5 1
   9    4   35 1
  10    4   36 1
  11    5    6 am
  12    5   22 1
  13    6    7 2
  14    6    8 1
  15    8   12 1
  16    8    9 2
  17    9   10 1
  18    9   13 1
  19   10   11 2
  20   10   37 1
  21   11   12 1
  22   13   14 2
  23   13   15 am
  24   15   16 1
  25   15   38 1
  26   16   21 ar
  27   16   17 ar
  28   17   18 ar
  29   17   39 1
  30   18   19 ar
  31   18   40 1
  32   19   20 ar
  33   20   21 ar
  34   20   41 1
  35   21   42 1
  36   22   27 ar
  37   22   23 ar
  38   23   24 ar
  39   23   43 1
  40   24   25 ar
  41   24   44 1
  42   25   26 ar
  43   25   28 1
  44   26   27 ar
  45   26   45 1
  46   27   46 1
  47   28   29 1
  48   28   30 1
  49   28   31 1

#	End of record

