#	Name: ASD06020176
#	Creating user name:	WinNT
#	Creation time:	15. 06. 2019 21:04

#	Modifying user name:	WinNT
#	Modification time:	15. 06. 2019 21:04

#	Program:	/corina/corina34_cracker 3.40 0067  02.08.2006

@<TRIPOS>MOLECULE
ASD06020176
  27   28    0    0    0
SMALL
NO_CHARGES


@<TRIPOS>ATOM
   1 C1            -0.6251     1.5499    -1.0558 C.2     
   2 C2            -0.5025     0.0800    -1.1229 C.ar    
   3 C3             0.6399    -0.5537    -0.6229 C.ar    
   4 C4             0.7461    -1.9307    -0.6895 C.ar    
   5 C5            -0.2732    -2.6789    -1.2486 C.ar    
   6 C6            -1.4059    -2.0570    -1.7449 C.ar    
   7 C7            -1.5289    -0.6850    -1.6805 C.ar    
   8 O8            -0.2171     2.2365    -1.9725 O.2     
   9 N9            -1.1942     2.1303     0.0193 N.am    
  10 N10           -2.7444    -0.0241    -2.2066 N.pl3   
  11 O11           -3.6390    -0.6925    -2.6928 O.2     
  12 O12           -2.8499     1.1882    -2.1534 O.2     
  13 C13           -2.3144     5.6320    -0.1326 C.ar    
  14 C14           -2.3342     4.2563    -0.2613 C.ar    
  15 C15           -1.2149     3.5227     0.1324 C.ar    
  16 C16           -0.1169     4.2158     0.6425 C.ar    
  17 C17           -0.1780     5.5930     0.7382 C.ar    
  18 N18           -1.2558     6.2508     0.3549 N.ar    
  19 F19            0.9903     3.5501     1.0376 F       
  20 F20           -3.4224     3.6306    -0.7609 F       
  21 F21            1.6365     0.1773    -0.0773 F       
  22 H22            1.6270    -2.4227    -0.3043 H       
  23 H23           -0.1851    -3.7541    -1.2989 H       
  24 H24           -2.1975    -2.6485    -2.1805 H       
  25 H25           -1.5894     1.5813     0.7145 H       
  26 H26           -3.1748     6.2085    -0.4389 H       
  27 H27            0.6673     6.1380     1.1319 H       
@<TRIPOS>BOND
   1    1    2 1
   2    1    8 2
   3    1    9 am
   4    2    3 ar
   5    2    7 ar
   6    3    4 ar
   7    3   21 1
   8    4    5 ar
   9    4   22 1
  10    5    6 ar
  11    5   23 1
  12    6    7 ar
  13    6   24 1
  14    7   10 1
  15    9   15 1
  16    9   25 1
  17   10   11 2
  18   10   12 2
  19   13   14 ar
  20   13   18 ar
  21   13   26 1
  22   14   15 ar
  23   14   20 1
  24   15   16 ar
  25   16   17 ar
  26   16   19 1
  27   17   18 ar
  28   17   27 1

#	End of record

