#	Name: ASD03320092
#	Creating user name:	WinNT
#	Creation time:	15. 06. 2019 20:36

#	Modifying user name:	WinNT
#	Modification time:	15. 06. 2019 20:36

#	Program:	/corina/corina34_cracker 3.40 0067  02.08.2006

@<TRIPOS>MOLECULE
ASD03320092
  37   39    0    0    0
SMALL
NO_CHARGES


@<TRIPOS>ATOM
   1 C1            -0.0077     1.3429    -0.1946 C.ar    
   2 C2             0.0217    -0.0349     0.0274 C.ar    
   3 C3            -1.1548    -0.7562     0.0430 C.ar    
   4 C4            -2.3643    -0.1189    -0.1608 C.ar    
   5 C5            -2.4039     1.2521    -0.3831 C.ar    
   6 C6            -1.2293     1.9865    -0.3945 C.ar    
   7 C7             1.2508     2.1183    -0.2119 C.2     
   8 O8             1.2228     3.3182    -0.4055 O.2     
   9 N9             2.4291     1.4951    -0.0131 N.am    
  10 C10            3.6275     2.2107    -0.1264 C.ar    
  11 N11           -3.6339     1.8936    -0.5898 N.pl3   
  12 C12            3.6874     3.5352     0.2865 C.ar    
  13 C13            4.8696     4.2400     0.1749 C.ar    
  14 C14            5.9972     3.6252    -0.3495 C.ar    
  15 C15            5.9380     2.3022    -0.7626 C.ar    
  16 C16            4.7581     1.5944    -0.6464 C.ar    
  17 O17            7.1610     4.3198    -0.4591 O.3     
  18 C18            8.2823     3.6245    -1.0079 C.3     
  19 F19            7.9767     3.1963    -2.3042 F       
  20 F20            9.3879     4.4809    -1.0482 F       
  21 F21            8.5803     2.5157    -0.2085 F       
  22 C22           -4.8704     1.3015    -0.5999 C.2     
  23 C23           -5.7685     2.2778    -0.8314 C.2     
  24 N24           -5.1043     3.4360    -0.9598 N.2     
  25 C25           -3.8256     3.2199    -0.8117 C.2     
  26 H26            0.9649    -0.5364     0.1867 H       
  27 H27           -1.1304    -1.8222     0.2146 H       
  28 H28           -3.2817    -0.6886    -0.1475 H       
  29 H29           -1.2583     3.0523    -0.5667 H       
  30 H30            2.4471     0.5510     0.2085 H       
  31 H31            2.8096     4.0140     0.6944 H       
  32 H32            4.9163     5.2702     0.4956 H       
  33 H33            6.8162     1.8244    -1.1711 H       
  34 H34            4.7122     0.5643    -0.9677 H       
  35 H35           -5.0833     0.2532    -0.4509 H       
  36 H36           -6.8386     2.1503    -0.9015 H       
  37 H37           -3.0494     3.9690    -0.8641 H       
@<TRIPOS>BOND
   1    1    2 ar
   2    1    7 1
   3    1    6 ar
   4    2    3 ar
   5    2   26 1
   6    3    4 ar
   7    3   27 1
   8    4    5 ar
   9    4   28 1
  10    5    6 ar
  11    5   11 1
  12    6   29 1
  13    7    8 2
  14    7    9 am
  15    9   10 1
  16    9   30 1
  17   10   12 ar
  18   10   16 ar
  19   11   22 1
  20   11   25 1
  21   12   13 ar
  22   12   31 1
  23   13   14 ar
  24   13   32 1
  25   14   15 ar
  26   14   17 1
  27   15   16 ar
  28   15   33 1
  29   16   34 1
  30   17   18 1
  31   18   19 1
  32   18   20 1
  33   18   21 1
  34   22   23 2
  35   22   35 1
  36   23   24 1
  37   23   36 1
  38   24   25 2
  39   25   37 1

#	End of record

