#	Name: ASD05720138
#	Creating user name:	WinNT
#	Creation time:	15. 06. 2019 21:01

#	Modifying user name:	WinNT
#	Modification time:	15. 06. 2019 21:01

#	Program:	/corina/corina34_cracker 3.40 0067  02.08.2006

@<TRIPOS>MOLECULE
ASD05720138
  49   54    0    0    0
SMALL
NO_CHARGES


@<TRIPOS>ATOM
   1 O1            -0.0161     1.3334     0.0094 O.3     
   2 C2             0.0021    -0.0041     0.0020 C.2     
   3 N3             1.2348    -0.5293    -0.0126 N.am    
   4 C4             2.2183     0.5645    -0.0161 C.3     
   5 C5             1.3508     1.8379    -0.0010 C.3     
   6 O6            -1.0069    -0.6808     0.0087 O.2     
   7 C7             3.0858     0.5003     1.2145 C.ar    
   8 C8             4.4396     0.7642     1.1195 C.ar    
   9 C9             5.2368     0.7055     2.2489 C.ar    
  10 C10            4.6763     0.3817     3.4755 C.ar    
  11 C11            3.3211     0.1181     3.5672 C.ar    
  12 C12            2.5262     0.1832     2.4378 C.ar    
  13 F13            5.4528     0.3233     4.5795 F       
  14 F14            6.5599     0.9628     2.1568 F       
  15 C15            3.0997    -3.5830    -0.0460 C.2     
  16 N16            2.7934    -2.2820    -0.0360 N.2     
  17 C17            1.5348    -1.8852    -0.0223 C.2     
  18 C18            0.4948    -2.8369    -0.0171 C.2     
  19 C19            0.8012    -4.1541    -0.0267 C.2     
  20 N20            2.1143    -4.5345    -0.0412 N.pl3   
  21 N21            2.7294    -5.7914    -0.0540 N.2     
  22 C22            4.0305    -5.6364    -0.0661 C.2     
  23 C23            4.3226    -4.2670    -0.0674 C.2     
  24 C24            5.6706    -3.6561    -0.0859 C.ar    
  25 C25            6.6416    -4.0791     0.8236 C.ar    
  26 C26            7.8955    -3.5104     0.8059 C.ar    
  27 C27            8.1956    -2.5119    -0.1206 C.ar    
  28 C28            7.2260    -2.0887    -1.0296 C.ar    
  29 C29            5.9735    -2.6607    -1.0167 C.ar    
  30 N30           11.2841    -0.6732    -0.6295 N.pl3   
  31 N31            9.9485    -0.9540    -0.9602 N.2     
  32 C32            9.5462    -1.8994    -0.1388 C.2     
  33 N33           10.5590    -2.2168     0.6794 N.2     
  34 C34           11.6044    -1.4870     0.3926 C.2     
  35 H35            2.8286     0.5277    -0.9184 H       
  36 H36            1.5314     2.4339    -0.8956 H       
  37 H37            1.5485     2.4243     0.8964 H       
  38 H38            4.8750     1.0158     0.1637 H       
  39 H39            2.8835    -0.1344     4.5217 H       
  40 H40            1.4677    -0.0183     2.5108 H       
  41 H41           -0.5367    -2.5172    -0.0052 H       
  42 H42            0.0174    -4.8972    -0.0225 H       
  43 H43            4.7584    -6.4342    -0.0770 H       
  44 H44            6.4092    -4.8521     1.5413 H       
  45 H45            8.6466    -3.8373     1.5097 H       
  46 H46            7.4591    -1.3155    -1.7467 H       
  47 H47            5.2243    -2.3363    -1.7238 H       
  48 H48           11.8633    -0.0231    -1.0569 H       
  49 H49           12.5617    -1.5301     0.8907 H       
@<TRIPOS>BOND
   1    1    2 1
   2    1    5 1
   3    2    3 am
   4    2    6 2
   5    3    4 1
   6    3   17 1
   7    4    5 1
   8    4    7 1
   9    4   35 1
  10    5   36 1
  11    5   37 1
  12    7    8 ar
  13    7   12 ar
  14    8    9 ar
  15    8   38 1
  16    9   10 ar
  17    9   14 1
  18   10   11 ar
  19   10   13 1
  20   11   12 ar
  21   11   39 1
  22   12   40 1
  23   15   16 1
  24   15   20 1
  25   15   23 2
  26   16   17 2
  27   17   18 1
  28   18   19 2
  29   18   41 1
  30   19   20 1
  31   19   42 1
  32   20   21 1
  33   21   22 2
  34   22   23 1
  35   22   43 1
  36   23   24 1
  37   24   25 ar
  38   24   29 ar
  39   25   26 ar
  40   25   44 1
  41   26   27 ar
  42   26   45 1
  43   27   28 ar
  44   27   32 1
  45   28   29 ar
  46   28   46 1
  47   29   47 1
  48   30   31 1
  49   30   34 1
  50   30   48 1
  51   31   32 2
  52   32   33 1
  53   33   34 2
  54   34   49 1

#	End of record

