#	Name: ASD01028580
#	Creating user name:	WinNT
#	Creation time:	15. 06. 2019 18:57

#	Modifying user name:	WinNT
#	Modification time:	15. 06. 2019 18:57

#	Program:	/corina/corina34_cracker 3.40 0067  02.08.2006

@<TRIPOS>MOLECULE
ASD01028580
  48   52    0    0    0
SMALL
NO_CHARGES


@<TRIPOS>ATOM
   1 N1            -0.0169     1.3921     0.0097 N.2     
   2 N2             0.0021    -0.0041     0.0020 N.pl3   
   3 C3             1.1071     2.0741     0.0026 C.2     
   4 C4             2.3532     1.4124    -0.0133 C.2     
   5 C5             2.4037     0.0542    -0.0215 C.2     
   6 C6             1.2008    -0.6771    -0.0130 C.2     
   7 N7             0.9145    -1.9687    -0.0178 N.2     
   8 N8            -0.3638    -2.1208    -0.0054 N.2     
   9 C9            -0.9586    -0.9539     0.0061 C.2     
  10 C10           -2.4463    -0.7141     0.0230 C.3     
  11 N11           -2.9137    -0.6431     1.4096 N.pl3   
  12 C12           -4.2576    -0.4273     1.6785 C.ar    
  13 C13           -5.1751    -0.2761     0.6520 C.ar    
  14 C14           -6.5141    -0.0611     0.9501 C.ar    
  15 N15           -6.9437     0.0047     2.1889 N.ar    
  16 C16           -6.1130    -0.1325     3.2277 C.ar    
  17 C17           -4.7336    -0.3607     3.0113 C.ar    
  18 C18           -6.5878    -0.0601     4.5505 C.ar    
  19 C19           -5.6865    -0.2090     5.5716 C.ar    
  20 C20           -4.3354    -0.4263     5.2815 C.ar    
  21 N21           -3.9038    -0.4990     4.0462 N.ar    
  22 O22           -6.1039    -0.1454     6.8628 O.3     
  23 C23            1.0647     3.5571     0.0110 C.ar    
  24 C24           -5.1087    -0.3094     7.8752 C.3     
  25 C25           -0.1587     4.2324     0.0263 C.ar    
  26 C26           -0.1444     5.6168     0.0341 C.ar    
  27 C27            1.0685     6.2808     0.0265 C.ar    
  28 N28            2.2078     5.6158     0.0121 N.ar    
  29 C29            2.2442     4.2992     0.0096 C.ar    
  30 C30            1.0892     7.7876     0.0345 C.3     
  31 H31            3.2683     1.9860    -0.0193 H       
  32 H32            3.3546    -0.4576    -0.0344 H       
  33 H33           -2.6688     0.2249    -0.4839 H       
  34 H34           -2.9521    -1.5324    -0.4895 H       
  35 H35           -2.2837    -0.7470     2.1398 H       
  36 H36           -4.8501    -0.3249    -0.3768 H       
  37 H37           -7.2207     0.0554     0.1417 H       
  38 H38           -7.6347     0.1087     4.7554 H       
  39 H39           -3.6331    -0.5424     6.0938 H       
  40 H40           -4.6384    -1.2868     7.7673 H       
  41 H41           -4.3540     0.4703     7.7725 H       
  42 H42           -5.5747    -0.2370     8.8579 H       
  43 H43           -1.0915     3.6882     0.0316 H       
  44 H44           -1.0706     6.1722     0.0456 H       
  45 H45            3.1966     3.7902    -0.0021 H       
  46 H46            1.1036     8.1454     1.0640 H       
  47 H47            1.9794     8.1415    -0.4857 H       
  48 H48            0.1996     8.1659    -0.4692 H       
@<TRIPOS>BOND
   1    1    2 1
   2    1    3 2
   3    2    6 1
   4    2    9 1
   5    3    4 1
   6    3   23 1
   7    4    5 2
   8    4   31 1
   9    5    6 1
  10    5   32 1
  11    6    7 2
  12    7    8 1
  13    8    9 2
  14    9   10 1
  15   10   11 1
  16   10   33 1
  17   10   34 1
  18   11   12 1
  19   11   35 1
  20   12   13 ar
  21   12   17 ar
  22   13   14 ar
  23   13   36 1
  24   14   15 ar
  25   14   37 1
  26   15   16 ar
  27   16   17 ar
  28   16   18 ar
  29   17   21 ar
  30   18   19 ar
  31   18   38 1
  32   19   20 ar
  33   19   22 1
  34   20   21 ar
  35   20   39 1
  36   22   24 1
  37   23   25 ar
  38   23   29 ar
  39   24   40 1
  40   24   41 1
  41   24   42 1
  42   25   26 ar
  43   25   43 1
  44   26   27 ar
  45   26   44 1
  46   27   28 ar
  47   27   30 1
  48   28   29 ar
  49   29   45 1
  50   30   46 1
  51   30   47 1
  52   30   48 1

#	End of record

