#	Name: ASD01001257
#	Creating user name:	WinNT
#	Creation time:	15. 06. 2019 18:55

#	Modifying user name:	WinNT
#	Modification time:	15. 06. 2019 18:55

#	Program:	/corina/corina34_cracker 3.40 0067  02.08.2006

@<TRIPOS>MOLECULE
ASD01001257
  51   53    0    0    0
SMALL
NO_CHARGES


@<TRIPOS>ATOM
   1 C1            -0.4259     1.4586     0.0101 C.ar    
   2 C2            -0.5286     0.0812     0.0347 C.ar    
   3 C3             0.6127    -0.7003     0.1219 C.ar    
   4 C4             1.8604    -0.1081     0.1849 C.ar    
   5 C5             1.9770     1.2692     0.1617 C.ar    
   6 C6             0.8303     2.0629     0.0734 C.ar    
   7 C7             0.9476     3.5364     0.0476 C.2     
   8 S8            -0.3832     4.7092    -0.0605 S.3     
   9 C9             0.6831     6.1993    -0.0276 C.3     
  10 N10            2.0293     5.6055     0.0687 N.am    
  11 N11            2.0392     4.2288     0.1049 N.2     
  12 C12            0.3822     7.0510     1.1787 C.ar    
  13 F13           -1.7441    -0.5053    -0.0261 F       
  14 F14            3.1968     1.8465     0.2243 F       
  15 C15            3.1537     6.3467     0.1217 C.2     
  16 O16            3.0871     7.5589     0.0470 O.2     
  17 N17            4.3519     5.7447     0.2575 N.am    
  18 O18            4.4295     4.3335     0.3444 O.3     
  19 C19            5.5741     6.5505     0.3151 C.3     
  20 C20            4.5713     3.6803    -0.9186 C.3     
  21 C21           -0.3434     8.2190     1.0365 C.ar    
  22 C22           -0.6194     9.0003     2.1430 C.ar    
  23 C23           -0.1703     8.6133     3.3917 C.ar    
  24 C24            0.5545     7.4448     3.5341 C.ar    
  25 C25            0.8268     6.6613     2.4282 C.ar    
  26 C26            0.5329     7.0084    -1.3174 C.3     
  27 C27            0.9192     6.1368    -2.5141 C.3     
  28 C28            0.7690     6.9459    -3.8040 C.3     
  29 N29            1.1399     6.1091    -4.9529 N.3     
  30 H30           -1.3157     2.0664    -0.0624 H       
  31 H31            0.5270    -1.7768     0.1411 H       
  32 H32            2.7458    -0.7227     0.2528 H       
  33 H33            5.7906     6.8085     1.3518 H       
  34 H34            6.4054     5.9796    -0.0985 H       
  35 H35            5.4355     7.4628    -0.2651 H       
  36 H36            4.6236     2.6023    -0.7663 H       
  37 H37            3.7138     3.9171    -1.5485 H       
  38 H38            5.4847     4.0233    -1.4045 H       
  39 H39           -0.6943     8.5213     0.0609 H       
  40 H40           -1.1857     9.9132     2.0318 H       
  41 H41           -0.3853     9.2240     4.2561 H       
  42 H42            0.9057     7.1426     4.5097 H       
  43 H43            1.3931     5.7484     2.5394 H       
  44 H44           -0.5020     7.3336    -1.4239 H       
  45 H45            1.1855     7.8805    -1.2774 H       
  46 H46            1.9541     5.8116    -2.4077 H       
  47 H47            0.2666     5.2647    -2.5542 H       
  48 H48           -0.2659     7.2711    -3.9104 H       
  49 H49            1.4216     7.8180    -3.7639 H       
  50 H50            1.0490     6.6212    -5.8175 H       
  51 H51            2.0738     5.7422    -4.8465 H       
@<TRIPOS>BOND
   1    1    2 ar
   2    1    6 ar
   3    1   30 1
   4    2    3 ar
   5    2   13 1
   6    3    4 ar
   7    3   31 1
   8    4    5 ar
   9    4   32 1
  10    5    6 ar
  11    5   14 1
  12    6    7 1
  13    7    8 1
  14    7   11 2
  15    8    9 1
  16    9   10 1
  17    9   12 1
  18    9   26 1
  19   10   11 1
  20   10   15 am
  21   12   21 ar
  22   12   25 ar
  23   15   16 2
  24   15   17 am
  25   17   18 1
  26   17   19 1
  27   18   20 1
  28   19   33 1
  29   19   34 1
  30   19   35 1
  31   20   36 1
  32   20   37 1
  33   20   38 1
  34   21   22 ar
  35   21   39 1
  36   22   23 ar
  37   22   40 1
  38   23   24 ar
  39   23   41 1
  40   24   25 ar
  41   24   42 1
  42   25   43 1
  43   26   27 1
  44   26   44 1
  45   26   45 1
  46   27   28 1
  47   27   46 1
  48   27   47 1
  49   28   29 1
  50   28   48 1
  51   28   49 1
  52   29   50 1
  53   29   51 1

#	End of record

