#	Name: ASD02690045
#	Creating user name:	WinNT
#	Creation time:	15. 06. 2019 20:26

#	Modifying user name:	WinNT
#	Modification time:	15. 06. 2019 20:26

#	Program:	/corina/corina34_cracker 3.40 0067  02.08.2006

@<TRIPOS>MOLECULE
ASD02690045
  33   34    0    0    0
SMALL
NO_CHARGES


@<TRIPOS>ATOM
   1 C1             0.0131     1.6505    -0.0518 C.3     
   2 C2            -0.0272     0.1049    -0.0281 C.3     
   3 C3             1.3142    -0.2346     0.6587 C.3     
   4 N4             2.1927     0.9097     0.3893 N.am    
   5 C5             1.4880     1.9839    -0.0061 C.2     
   6 C6            -1.1922    -0.3917     0.7887 C.ar    
   7 C7            -1.8969    -1.5085     0.3798 C.ar    
   8 C8            -2.9655    -1.9640     1.1291 C.ar    
   9 C9            -3.3292    -1.3031     2.2875 C.ar    
  10 C10           -2.6239    -0.1869     2.6968 C.ar    
  11 C11           -1.5526     0.2661     1.9499 C.ar    
  12 C12            1.1100    -0.4021     2.1657 C.3     
  13 O13            1.9652     3.0631    -0.2863 O.2     
  14 C14            3.6505     0.8846     0.5328 C.3     
  15 C15            4.2764     0.4607    -0.7709 C.2     
  16 N16            5.6167     0.3659    -0.8755 N.am    
  17 O17            3.5740     0.2048    -1.7259 O.2     
  18 H18           -0.4355     2.0297    -0.9700 H       
  19 H19           -0.4975     2.0588     0.8203 H       
  20 H20           -0.0611    -0.3000    -1.0395 H       
  21 H21            1.7373    -1.1437     0.2313 H       
  22 H22           -1.6128    -2.0248    -0.5252 H       
  23 H23           -3.5166    -2.8361     0.8092 H       
  24 H24           -4.1645    -1.6586     2.8724 H       
  25 H25           -2.9082     0.3296     3.6017 H       
  26 H26           -0.9992     1.1360     2.2717 H       
  27 H27            0.3817    -1.1922     2.3481 H       
  28 H28            2.0582    -0.6668     2.6337 H       
  29 H29            0.7447     0.5336     2.5890 H       
  30 H30            4.0064     1.8795     0.8002 H       
  31 H31            3.9264     0.1776     1.3152 H       
  32 H32            6.1785     0.5706    -0.1117 H       
  33 H33            6.0196     0.0931    -1.7147 H       
@<TRIPOS>BOND
   1    1    2 1
   2    1    5 1
   3    1   18 1
   4    1   19 1
   5    2    3 1
   6    2    6 1
   7    2   20 1
   8    3    4 1
   9    3   12 1
  10    3   21 1
  11    4    5 am
  12    4   14 1
  13    5   13 2
  14    6    7 ar
  15    6   11 ar
  16    7    8 ar
  17    7   22 1
  18    8    9 ar
  19    8   23 1
  20    9   10 ar
  21    9   24 1
  22   10   11 ar
  23   10   25 1
  24   11   26 1
  25   12   27 1
  26   12   28 1
  27   12   29 1
  28   14   15 1
  29   14   30 1
  30   14   31 1
  31   15   16 am
  32   15   17 2
  33   16   32 1
  34   16   33 1

#	End of record

