#	Name: ASD01885174
#	Creating user name:	WinNT
#	Creation time:	15. 06. 2019 19:49

#	Modifying user name:	WinNT
#	Modification time:	15. 06. 2019 19:49

#	Program:	/corina/corina34_cracker 3.40 0067  02.08.2006

@<TRIPOS>MOLECULE
ASD01885174
  61   66    0    0    0
SMALL
NO_CHARGES


@<TRIPOS>ATOM
   1 C1             2.2083     1.3303     0.7236 C.2     
   2 C2             1.3492    -0.4742    -0.5839 C.2     
   3 C3             0.0928     0.1555    -0.5728 C.2     
   4 C4            -0.0760     1.3301     0.0699 C.2     
   5 N5             0.9688     1.9217     0.7169 N.pl3   
   6 C6             1.1011     3.0717     1.4319 C.2     
   7 N7             2.3444     3.1457     1.8315 N.2     
   8 N8             3.0062     2.1205     1.4232 N.2     
   9 C9             0.0140     4.0771     1.7117 C.3     
  10 C10            1.5316    -1.7858    -1.3033 C.3     
  11 C11           -0.7004     3.7070     3.0131 C.3     
  12 N12            1.8226    -1.5306    -2.7204 N.3     
  13 C13            2.3999     0.1046     0.0573 C.2     
  14 C14            3.7535    -0.5579     0.0543 C.3     
  15 C15           -1.7647     4.6745     3.5346 C.3     
  16 C16           -2.1818     3.3348     2.9246 C.3     
  17 F17            4.1664    -0.7691    -1.2656 F       
  18 F18            4.6775     0.2663     0.7056 F       
  19 F19            3.6733    -1.7857     0.7200 F       
  20 C20            2.3735    -2.7345    -3.3723 C.3     
  21 C21            0.6124    -1.7009    -3.5479 C.3     
  22 C22            1.4889    -2.4140    -4.5782 C.3     
  23 C23            2.1376    -1.4832    -5.5977 C.3     
  24 N24            3.0926    -2.2469    -6.4144 N.3     
  25 C25            2.4255    -3.3504    -7.1163 C.3     
  26 C26            1.8653    -4.3476    -6.0997 C.3     
  27 C27            0.8348    -3.6379    -5.2135 C.3     
  28 C28            3.7626    -1.4111    -7.3157 C.ar    
  29 C29            3.0456    -0.6941    -8.2634 C.ar    
  30 C30            3.7085     0.1307    -9.1519 C.ar    
  31 C31            5.0875     0.2426    -9.0985 C.ar    
  32 C32            5.8063    -0.4711    -8.1544 C.ar    
  33 C33            5.1469    -1.2935    -7.2592 C.ar    
  34 F34            5.7329     1.0492    -9.9692 F       
  35 F35            5.8474    -1.9858    -6.3344 F       
  36 H36           -0.7422    -0.3029    -1.0819 H       
  37 H37           -1.0457     1.8055     0.0717 H       
  38 H38            0.4533     5.0700     1.8081 H       
  39 H39           -0.7028     4.0752     0.8905 H       
  40 H40            2.3604    -2.3338    -0.8552 H       
  41 H41            0.6188    -2.3757    -1.2203 H       
  42 H42           -0.0925     3.1825     3.7503 H       
  43 H43           -1.8573     4.7863     4.6149 H       
  44 H44           -1.9560     5.5748     2.9505 H       
  45 H45           -2.6475     3.3536     1.9392 H       
  46 H46           -2.5488     2.5651     3.6036 H       
  47 H47            3.4403    -2.6641    -3.5849 H       
  48 H48            2.1033    -3.6632    -2.8697 H       
  49 H49           -0.1376    -2.3481    -3.0930 H       
  50 H50            0.1962    -0.7601    -3.9080 H       
  51 H51            1.3686    -1.0560    -6.2413 H       
  52 H52            2.6629    -0.6826    -5.0768 H       
  53 H53            1.6107    -2.9545    -7.7225 H       
  54 H54            3.1436    -3.8560    -7.7619 H       
  55 H55            1.3861    -5.1734    -6.6256 H       
  56 H56            2.6762    -4.7306    -5.4802 H       
  57 H57            0.4957    -4.3177    -4.4318 H       
  58 H58           -0.0144    -3.3241    -5.8206 H       
  59 H59            1.9700    -0.7810    -8.3066 H       
  60 H60            3.1503     0.6885    -9.8892 H       
  61 H61            6.8819    -0.3826    -8.1148 H       
@<TRIPOS>BOND
   1    1   13 1
   2    1    5 1
   3    1    8 2
   4    2    3 1
   5    2   10 1
   6    2   13 2
   7    3    4 2
   8    3   36 1
   9    4    5 1
  10    4   37 1
  11    5    6 1
  12    6    7 2
  13    6    9 1
  14    7    8 1
  15    9   11 1
  16    9   38 1
  17    9   39 1
  18   10   12 1
  19   10   40 1
  20   10   41 1
  21   11   15 1
  22   11   16 1
  23   11   42 1
  24   12   20 1
  25   12   21 1
  26   13   14 1
  27   14   17 1
  28   14   18 1
  29   14   19 1
  30   15   16 1
  31   15   43 1
  32   15   44 1
  33   16   45 1
  34   16   46 1
  35   20   22 1
  36   20   47 1
  37   20   48 1
  38   21   22 1
  39   21   49 1
  40   21   50 1
  41   22   23 1
  42   22   27 1
  43   23   24 1
  44   23   51 1
  45   23   52 1
  46   24   25 1
  47   24   28 1
  48   25   26 1
  49   25   53 1
  50   25   54 1
  51   26   27 1
  52   26   55 1
  53   26   56 1
  54   27   57 1
  55   27   58 1
  56   28   29 ar
  57   28   33 ar
  58   29   30 ar
  59   29   59 1
  60   30   31 ar
  61   30   60 1
  62   31   32 ar
  63   31   34 1
  64   32   33 ar
  65   32   61 1
  66   33   35 1

#	End of record

