#	Name: ASD02039028
#	Creating user name:	WinNT
#	Creation time:	15. 06. 2019 20:17

#	Modifying user name:	WinNT
#	Modification time:	15. 06. 2019 20:17

#	Program:	/corina/corina34_cracker 3.40 0067  02.08.2006

@<TRIPOS>MOLECULE
ASD02039028
  39   42    0    0    0
SMALL
NO_CHARGES


@<TRIPOS>ATOM
   1 N1             0.0234     1.2847    -0.3608 N.2     
   2 N2             0.0397    -0.0017    -0.3621 N.2     
   3 C3             1.2243     1.7332    -0.0876 C.2     
   4 O4             2.0202     0.6621     0.0882 O.3     
   5 C5             1.2409    -0.4220    -0.0921 C.2     
   6 N6             1.6034     3.0607     0.0032 N.pl3   
   7 C7             0.6404     4.0705    -0.0872 C.ar    
   8 C8             1.6807    -1.8604     0.0018 C.3     
   9 O9             2.1169    -2.3099    -1.2826 O.3     
  10 C10            2.5496    -3.5957    -1.3723 C.ar    
  11 C11            2.9842    -4.0911    -2.5855 C.ar    
  12 C12            2.5575    -4.4048    -0.2389 C.ar    
  13 C13            2.9925    -5.7099    -0.3110 C.ar    
  14 C14            3.4291    -6.2306    -1.5243 C.ar    
  15 C15            3.4281    -5.4145    -2.6714 C.ar    
  16 C16           -0.6616     3.8291     0.3305 C.ar    
  17 C17            0.9862     5.3187    -0.5899 C.ar    
  18 C18            0.0341     6.3150    -0.6786 C.ar    
  19 C19           -1.2645     6.0720    -0.2675 C.ar    
  20 C20           -1.6121     4.8300     0.2398 C.ar    
  21 N21            3.8683    -7.5358    -1.6174 N.am    
  22 C22            4.2905    -8.0416    -2.7893 C.2     
  23 C23            4.3043    -7.2666    -3.9686 C.2     
  24 O24            4.6715    -9.1986    -2.8342 O.2     
  25 C25            3.8900    -5.9757    -3.9424 C.2     
  26 F26           -2.8808     4.5950     0.6401 F       
  27 Cl27          -2.4585     7.3272    -0.3801 Cl      
  28 H28            2.5371     3.2909     0.1296 H       
  29 H29            2.5017    -1.9435     0.7139 H       
  30 H30            0.8452    -2.4746     0.3373 H       
  31 H31            2.9811    -3.4609    -3.4625 H       
  32 H32            2.2197    -4.0051     0.7059 H       
  33 H33            2.9947    -6.3284     0.5744 H       
  34 H34           -0.9320     2.8609     0.7254 H       
  35 H35            1.9996     5.5098    -0.9108 H       
  36 H36            0.3035     7.2852    -1.0691 H       
  37 H37            3.8726    -8.0962    -0.8256 H       
  38 H38            4.6501    -7.7020    -4.8945 H       
  39 H39            3.8969    -5.3758    -4.8404 H       
@<TRIPOS>BOND
   1    1    2 1
   2    1    3 2
   3    2    5 2
   4    3    4 1
   5    3    6 1
   6    4    5 1
   7    5    8 1
   8    6    7 1
   9    6   28 1
  10    7   16 ar
  11    7   17 ar
  12    8    9 1
  13    8   29 1
  14    8   30 1
  15    9   10 1
  16   10   11 ar
  17   10   12 ar
  18   11   15 ar
  19   11   31 1
  20   12   13 ar
  21   12   32 1
  22   13   14 ar
  23   13   33 1
  24   14   15 ar
  25   14   21 1
  26   15   25 1
  27   16   20 ar
  28   16   34 1
  29   17   18 ar
  30   17   35 1
  31   18   19 ar
  32   18   36 1
  33   19   20 ar
  34   19   27 1
  35   20   26 1
  36   21   22 am
  37   21   37 1
  38   22   23 1
  39   22   24 2
  40   23   25 2
  41   23   38 1
  42   25   39 1

#	End of record

