#	Name: ASD08070286
#	Creating user name:	WinNT
#	Creation time:	15. 06. 2019 21:14

#	Modifying user name:	WinNT
#	Modification time:	15. 06. 2019 21:14

#	Program:	/corina/corina34_cracker 3.40 0067  02.08.2006

@<TRIPOS>MOLECULE
ASD08070286
  44   45    0    0    0
SMALL
NO_CHARGES


@<TRIPOS>ATOM
   1 O1             0.4934     1.4073    -0.3595 O.3     
   2 C2             0.5025    -0.0309    -0.4238 C.3     
   3 O3             1.7473    -0.3370    -1.0793 O.3     
   4 C4             2.5782     0.7065    -0.7877 C.ar    
   5 C5             1.8049     1.7805    -0.3441 C.ar    
   6 C6             2.4149     2.9732     0.0194 C.ar    
   7 C7             3.7848     3.1029    -0.0563 C.ar    
   8 C8             4.5642     2.0322    -0.4999 C.ar    
   9 C9             3.9513     0.8306    -0.8657 C.ar    
  10 C10            6.0316     2.1693    -0.5821 C.2     
  11 O11            6.7086     1.2362    -0.9685 O.2     
  12 N12            6.6209     3.3287    -0.2287 N.am    
  13 C13            8.4917     4.8529    -0.4863 C.2     
  14 C14            8.0822     3.4301    -0.2048 C.3     
  15 C15            8.5998     3.0137     1.1735 C.3     
  16 C16            7.8907     3.8330     2.2536 C.3     
  17 C17            8.2232     3.2569     3.6314 C.3     
  18 O18            7.6463     5.7125    -0.6177 O.2     
  19 C19            8.3610     5.2872     2.1817 C.3     
  20 N20            9.7973     5.1700    -0.5920 N.am    
  21 C21           10.2002     6.5683    -0.7610 C.3     
  22 C22           10.8137     4.1163    -0.5379 C.3     
  23 H23            0.4821    -0.4590     0.5784 H       
  24 H24           -0.3398    -0.3931    -1.0132 H       
  25 H25            1.8140     3.8024     0.3624 H       
  26 H26            4.2557     4.0326     0.2271 H       
  27 H27            4.5507     0.0003    -1.2088 H       
  28 H28            6.0775     4.0960     0.0097 H       
  29 H29            8.5045     2.7733    -0.9652 H       
  30 H30            8.4000     1.9539     1.3316 H       
  31 H31            9.6736     3.1930     1.2277 H       
  32 H32            6.8134     3.7913     2.0926 H       
  33 H33            9.3004     3.2987     3.7923 H       
  34 H34            7.7180     3.8407     4.4009 H       
  35 H35            7.8881     2.2210     3.6826 H       
  36 H36            8.0220     5.8229     3.0684 H       
  37 H37            9.4497     5.3150     2.1345 H       
  38 H38            7.9465     5.7595     1.2911 H       
  39 H39           10.3567     7.0221     0.2176 H       
  40 H40           11.1260     6.6129    -1.3345 H       
  41 H41            9.4175     7.1103    -1.2918 H       
  42 H42           10.3257     3.1432    -0.4826 H       
  43 H43           11.4326     4.1620    -1.4340 H       
  44 H44           11.4392     4.2597     0.3433 H       
@<TRIPOS>BOND
   1    1    2 1
   2    1    5 1
   3    2    3 1
   4    2   23 1
   5    2   24 1
   6    3    4 1
   7    4    5 ar
   8    4    9 ar
   9    5    6 ar
  10    6    7 ar
  11    6   25 1
  12    7    8 ar
  13    7   26 1
  14    8    9 ar
  15    8   10 1
  16    9   27 1
  17   10   11 2
  18   10   12 am
  19   12   14 1
  20   12   28 1
  21   13   14 1
  22   13   18 2
  23   13   20 am
  24   14   15 1
  25   14   29 1
  26   15   16 1
  27   15   30 1
  28   15   31 1
  29   16   17 1
  30   16   19 1
  31   16   32 1
  32   17   33 1
  33   17   34 1
  34   17   35 1
  35   19   36 1
  36   19   37 1
  37   19   38 1
  38   20   21 1
  39   20   22 1
  40   21   39 1
  41   21   40 1
  42   21   41 1
  43   22   42 1
  44   22   43 1
  45   22   44 1

#	End of record

