#	Name: ASD01881508
#	Creating user name:	WinNT
#	Creation time:	15. 06. 2019 19:42

#	Modifying user name:	WinNT
#	Modification time:	15. 06. 2019 19:42

#	Program:	/corina/corina34_cracker 3.40 0067  02.08.2006

@<TRIPOS>MOLECULE
ASD01881508
  72   78    0    0    0
SMALL
NO_CHARGES


@<TRIPOS>ATOM
   1 C1             0.0462     2.4644    -0.1880 C.3     
   2 C2            -0.1320     0.9293    -0.2668 C.3     
   3 C3             1.3263     0.3612    -0.2625 C.3     
   4 C4             1.8854     0.7569    -1.6557 C.3     
   5 C5             2.0515     2.2935    -1.5879 C.3     
   6 C6             1.5972     2.6781    -0.1550 C.3     
   7 C7             3.2542     0.1711    -1.8853 C.2     
   8 C8             4.2657     1.2854    -1.7470 C.3     
   9 C9             3.5105     2.5932    -1.8105 C.2     
  10 C10            5.1359     1.1558    -0.5082 C.3     
  11 C11            6.2240     2.2311    -0.5345 C.3     
  12 C12            7.0220     2.1812     0.7700 C.3     
  13 C13            8.1101     3.2564     0.7436 C.3     
  14 C14            9.0483     3.0038    -0.4382 C.3     
  15 C15            8.2503     3.0537    -1.7427 C.3     
  16 C16            7.1622     1.9784    -1.7163 C.3     
  17 C17            6.0838     2.4339     1.9518 C.3     
  18 N18            6.8350     2.3116     3.2082 N.3     
  19 C19            7.2939     0.9310     3.4152 C.3     
  20 C20            8.1374     0.8624     4.6905 C.3     
  21 N21            7.3343     1.3240     5.8313 N.3     
  22 C22            6.8754     2.7046     5.6243 C.3     
  23 C23            6.0319     2.7732     4.3491 C.3     
  24 C24            8.0481     1.2078     7.0251 C.2     
  25 N25            9.2538     0.7456     7.0411 N.2     
  26 S26            9.8208     0.7394     8.6370 S.3     
  27 C27            8.3544     1.4006     9.3634 C.ar    
  28 C28            7.4626     1.6086     8.2947 C.ar    
  29 C29            7.9914     1.7136    10.6663 C.ar    
  30 C30            6.7494     2.2256    10.9202 C.ar    
  31 C31            5.8536     2.4321     9.8782 C.ar    
  32 C32            6.1920     2.1441     8.5918 C.ar    
  33 O33            3.5024    -0.9903    -2.1376 O.2     
  34 O34            3.9962     3.6885    -2.0060 O.2     
  35 C35            2.0053     1.4151     0.6788 C.3     
  36 H36           -0.3802     2.9430    -1.0675 H       
  37 H37           -0.4055     2.8542     0.7223 H       
  38 H38           -0.6785     0.5649     0.6015 H       
  39 H39           -0.6412     0.6511    -1.1876 H       
  40 H40            1.4257    -0.6836     0.0246 H       
  41 H41            1.1924     0.4696    -2.4590 H       
  42 H42            1.4286     2.7897    -2.3476 H       
  43 H43            1.9320     3.6416     0.2232 H       
  44 H44            4.9331     1.2423    -2.6356 H       
  45 H45            4.5208     1.2830     0.3827 H       
  46 H46            5.5999     0.1697    -0.4916 H       
  47 H47            5.7622     3.2128    -0.6406 H       
  48 H48            7.4837     1.1995     0.8760 H       
  49 H49            7.6484     4.2381     0.6375 H       
  50 H50            8.6786     3.2209     1.6729 H       
  51 H51            9.8235     3.7698    -0.4570 H       
  52 H52            9.5101     2.0221    -0.3321 H       
  53 H53            7.7886     4.0353    -1.8487 H       
  54 H54            8.9187     2.8737    -2.5846 H       
  55 H55            7.6239     0.9968    -1.6102 H       
  56 H56            6.5937     2.0140    -2.6456 H       
  57 H57            5.6649     3.4372     1.8751 H       
  58 H58            5.2768     1.7012     1.9382 H       
  59 H59            6.4314     0.2719     3.5139 H       
  60 H60            7.8967     0.6165     2.5632 H       
  61 H61            8.4548    -0.1662     4.8617 H       
  62 H62            9.0144     1.5005     4.5812 H       
  63 H63            6.2727     3.0191     6.4764 H       
  64 H64            7.7380     3.3636     5.5257 H       
  65 H65            5.7145     3.8018     4.1779 H       
  66 H66            5.1549     2.1351     4.4584 H       
  67 H67            8.6874     1.5529    11.4763 H       
  68 H68            6.4638     2.4698    11.9327 H       
  69 H69            4.8753     2.8368    10.0917 H       
  70 H70            5.4799     2.3124     7.7975 H       
  71 H71            1.5167     1.4264     1.6662 H       
  72 H72            3.0655     1.2849     0.7942 H       
@<TRIPOS>BOND
   1    1    2 1
   2    1    6 1
   3    1   36 1
   4    1   37 1
   5    2    3 1
   6    2   38 1
   7    2   39 1
   8    3    4 1
   9    3   35 1
  10    3   40 1
  11    4    5 1
  12    4    7 1
  13    4   41 1
  14    5    6 1
  15    5    9 1
  16    5   42 1
  17    6   35 1
  18    6   43 1
  19    7    8 1
  20    7   33 2
  21    8    9 1
  22    8   10 1
  23    8   44 1
  24    9   34 2
  25   10   11 1
  26   10   45 1
  27   10   46 1
  28   11   12 1
  29   11   16 1
  30   11   47 1
  31   12   13 1
  32   12   17 1
  33   12   48 1
  34   13   14 1
  35   13   49 1
  36   13   50 1
  37   14   15 1
  38   14   51 1
  39   14   52 1
  40   15   16 1
  41   15   53 1
  42   15   54 1
  43   16   55 1
  44   16   56 1
  45   17   18 1
  46   17   57 1
  47   17   58 1
  48   18   19 1
  49   18   23 1
  50   19   20 1
  51   19   59 1
  52   19   60 1
  53   20   21 1
  54   20   61 1
  55   20   62 1
  56   21   22 1
  57   21   24 1
  58   22   23 1
  59   22   63 1
  60   22   64 1
  61   23   65 1
  62   23   66 1
  63   24   25 2
  64   24   28 1
  65   25   26 1
  66   26   27 1
  67   27   28 ar
  68   27   29 ar
  69   28   32 ar
  70   29   30 ar
  71   29   67 1
  72   30   31 ar
  73   30   68 1
  74   31   32 ar
  75   31   69 1
  76   32   70 1
  77   35   71 1
  78   35   72 1

#	End of record

