#	Name: ASD04882409
#	Creating user name:	WinNT
#	Creation time:	15. 06. 2019 20:54

#	Modifying user name:	WinNT
#	Modification time:	15. 06. 2019 20:54

#	Program:	/corina/corina34_cracker 3.40 0067  02.08.2006

@<TRIPOS>MOLECULE
ASD04882409
  78   82    0    0    0
SMALL
NO_CHARGES


@<TRIPOS>ATOM
   1 C1            -0.0215     1.4013    -0.0093 C.ar    
   2 C2            -0.0116     0.0037    -0.0052 C.ar    
   3 C3            -1.2094    -0.7018    -0.0165 C.ar    
   4 C4            -2.4097    -0.0267    -0.0323 C.ar    
   5 C5            -2.4268     1.3709    -0.0370 C.ar    
   6 C6            -1.2240     2.0826    -0.0189 C.ar    
   7 N7             1.1997    -0.6831     0.0098 N.3     
   8 C8             1.3067    -1.5361     1.2016 C.3     
   9 C9             1.3723    -1.4733    -1.2171 C.3     
  10 C10            2.7462    -2.1475    -1.1974 C.3     
  11 N11            2.8532    -3.0006    -0.0056 N.3     
  12 C12            2.6806    -2.2104     1.2214 C.3     
  13 C13           -3.7127     2.0938    -0.0549 C.2     
  14 O14           -3.7266     3.3097    -0.0589 O.2     
  15 C15            4.0707    -3.6908     0.0095 C.ar    
  16 C16            5.2673    -2.9898     0.0204 C.ar    
  17 C17            4.0837    -5.0843     0.0195 C.ar    
  18 C18            5.2911    -5.7619     0.0349 C.ar    
  19 C19            6.4808    -5.0561     0.0404 C.ar    
  20 C20            6.4687    -3.6740     0.0358 C.ar    
  21 N21           -4.8720     1.4066    -0.0667 N.am    
  22 C22           -6.1489     2.1245    -0.0845 C.3     
  23 C23           -7.3003     1.1170    -0.0953 C.3     
  24 C24           -8.6339     1.8668    -0.1139 C.3     
  25 N25            1.1863     2.1110     0.0021 N.am    
  26 C26            1.2294     3.3599     0.5068 C.2     
  27 O27            0.2059     3.8988     0.8856 O.2     
  28 C28            2.5092     4.0695     0.5995 C.2     
  29 O29            3.7109     3.5902     0.2170 O.3     
  30 C30            4.6525     4.5139     0.4498 C.2     
  31 C31            4.0665     5.6061     0.9882 C.2     
  32 C32            2.6927     5.3335     1.0826 C.2     
  33 N33           -9.7364     0.9021    -0.1241 N.am    
  34 C34          -10.3209     0.4065     0.9802 C.2     
  35 C35          -10.3487     0.3573    -1.3416 C.3     
  36 C36          -11.1255    -0.8979    -0.8861 C.3     
  37 C37          -11.4131    -0.5680     0.5981 C.3     
  38 O38          -10.0165     0.6978     2.1175 O.2     
  39 C39            6.1233     4.3604     0.1597 C.3     
  40 O40            2.9133    -5.7771     0.0146 O.3     
  41 C41            3.0034    -7.2032     0.0254 C.3     
  42 F42            3.6814    -7.6188     1.1764 F       
  43 F43            1.7165    -7.7518     0.0185 F       
  44 F44            3.7006    -7.6350    -1.1080 F       
  45 H45           -1.1987    -1.7818    -0.0133 H       
  46 H46           -3.3386    -0.5776    -0.0414 H       
  47 H47           -1.2341     3.1626    -0.0224 H       
  48 H48            1.1881    -0.9262     2.0972 H       
  49 H49            0.5279    -2.2983     1.1745 H       
  50 H50            0.5943    -2.2347    -1.2718 H       
  51 H51            1.3015    -0.8176    -2.0850 H       
  52 H52            2.8648    -2.7574    -2.0930 H       
  53 H53            3.5250    -1.3854    -1.1702 H       
  54 H54            3.4586    -1.4490     1.2760 H       
  55 H55            2.7514    -2.8661     2.0892 H       
  56 H56            5.2607    -1.9099     0.0165 H       
  57 H57            5.3041    -6.8418     0.0430 H       
  58 H58            7.4215    -5.5864     0.0527 H       
  59 H59            7.4000    -3.1271     0.0401 H       
  60 H60           -4.8609     0.4367    -0.0635 H       
  61 H61           -6.2246     2.7533     0.8026 H       
  62 H62           -6.2030     2.7476    -0.9772 H       
  63 H63           -7.2246     0.4882    -0.9824 H       
  64 H64           -7.2462     0.4939     0.7974 H       
  65 H65           -8.7096     2.4955     0.7733 H       
  66 H66           -8.6880     2.4899    -1.0065 H       
  67 H67            1.9917     1.7034    -0.3533 H       
  68 H68            4.5614     6.5186     1.2861 H       
  69 H69            1.9297     5.9931     1.4688 H       
  70 H70          -11.0318     1.0856    -1.7787 H       
  71 H71           -9.5775     0.0830    -2.0614 H       
  72 H72          -12.0538    -1.0070    -1.4468 H       
  73 H73          -10.5092    -1.7924    -0.9770 H       
  74 H74          -11.3511    -1.4691     1.2082 H       
  75 H75          -12.3931    -0.1023     0.7023 H       
  76 H76            6.3077     3.3767    -0.2721 H       
  77 H77            6.4371     5.1309    -0.5445 H       
  78 H78            6.6889     4.4624     1.0858 H       
@<TRIPOS>BOND
   1    1    2 ar
   2    1   25 1
   3    1    6 ar
   4    2    3 ar
   5    2    7 1
   6    3    4 ar
   7    3   45 1
   8    4    5 ar
   9    4   46 1
  10    5    6 ar
  11    5   13 1
  12    6   47 1
  13    7    8 1
  14    7    9 1
  15    8   12 1
  16    8   48 1
  17    8   49 1
  18    9   10 1
  19    9   50 1
  20    9   51 1
  21   10   11 1
  22   10   52 1
  23   10   53 1
  24   11   12 1
  25   11   15 1
  26   12   54 1
  27   12   55 1
  28   13   14 2
  29   13   21 am
  30   15   16 ar
  31   15   17 ar
  32   16   20 ar
  33   16   56 1
  34   17   18 ar
  35   17   40 1
  36   18   19 ar
  37   18   57 1
  38   19   20 ar
  39   19   58 1
  40   20   59 1
  41   21   22 1
  42   21   60 1
  43   22   23 1
  44   22   61 1
  45   22   62 1
  46   23   24 1
  47   23   63 1
  48   23   64 1
  49   24   33 1
  50   24   65 1
  51   24   66 1
  52   25   26 am
  53   25   67 1
  54   26   27 2
  55   26   28 1
  56   28   29 1
  57   28   32 2
  58   29   30 1
  59   30   31 2
  60   30   39 1
  61   31   32 1
  62   31   68 1
  63   32   69 1
  64   33   34 am
  65   33   35 1
  66   34   38 2
  67   34   37 1
  68   35   36 1
  69   35   70 1
  70   35   71 1
  71   36   37 1
  72   36   72 1
  73   36   73 1
  74   37   74 1
  75   37   75 1
  76   39   76 1
  77   39   77 1
  78   39   78 1
  79   40   41 1
  80   41   42 1
  81   41   43 1
  82   41   44 1

#	End of record

