#	Name: ASD07300203
#	Creating user name:	WinNT
#	Creation time:	15. 06. 2019 21:09

#	Modifying user name:	WinNT
#	Modification time:	15. 06. 2019 21:09

#	Program:	/corina/corina34_cracker 3.40 0067  02.08.2006

@<TRIPOS>MOLECULE
ASD07300203
  44   48    0    0    0
SMALL
NO_CHARGES


@<TRIPOS>ATOM
   1 C1            -0.8599     0.9896    -0.1294 C.ar    
   2 C2            -1.0230    -0.3812    -0.3523 C.ar    
   3 C3             0.0623    -1.2297    -0.1930 C.ar    
   4 C4             1.2774    -0.6770     0.1849 C.ar    
   5 C5             1.3668     0.6872     0.3885 C.ar    
   6 N6             0.3183     1.4716     0.2300 N.ar    
   7 C7            -2.9740     0.6165    -0.6995 C.2     
   8 N8            -2.0984     1.5792    -0.3556 N.am    
   9 N9            -2.3531    -0.5785    -0.7114 N.am    
  10 O10           -4.1477     0.7988    -0.9638 O.2     
  11 C11           -2.3872     2.9474    -0.2438 C.ar    
  12 C12           -3.6715     3.4091    -0.4984 C.ar    
  13 C13           -3.9552     4.7560    -0.3882 C.ar    
  14 C14           -2.9571     5.6478    -0.0232 C.ar    
  15 C15           -1.6734     5.1869     0.2314 C.ar    
  16 C16           -1.3901     3.8395     0.1271 C.ar    
  17 O17           -3.2368     6.9739     0.0847 O.3     
  18 C18           -4.9077     7.3579     3.1148 C.2     
  19 C19           -5.4745     7.0487     4.3640 C.2     
  20 C20           -6.0993     8.0299     5.0733 C.2     
  21 C21           -6.1670     9.3283     4.5480 C.2     
  22 C22           -5.6158     9.6048     3.3444 C.2     
  23 N23           -4.9905     8.6325     2.6307 N.pl3   
  24 N24           -4.3432     8.6233     1.3869 N.2     
  25 C25           -3.9155     7.3949     1.1826 C.2     
  26 N26           -4.2467     6.6319     2.2187 N.2     
  27 C27           -2.9727    -1.8651    -1.0381 C.3     
  28 C28           -3.5355    -2.4983     0.2359 C.3     
  29 H29           -0.0358    -2.2925    -0.3584 H       
  30 H30            2.1447    -1.3064     0.3190 H       
  31 H31            2.3122     1.1186     0.6827 H       
  32 H32           -4.4484     2.7150    -0.7829 H       
  33 H33           -4.9542     5.1153    -0.5866 H       
  34 H34           -0.8968     5.8815     0.5156 H       
  35 H35           -0.3920     3.4802     0.3296 H       
  36 H36           -5.4155     6.0444     4.7567 H       
  37 H37           -6.5400     7.8089     6.0341 H       
  38 H38           -6.6611    10.1097     5.1062 H       
  39 H39           -5.6732    10.6074     2.9471 H       
  40 H40           -3.7802    -1.7083    -1.7533 H       
  41 H41           -2.2252    -2.5282    -1.4737 H       
  42 H42           -3.9966    -3.4556    -0.0072 H       
  43 H43           -2.7280    -2.6551     0.9511 H       
  44 H44           -4.2830    -1.8353     0.6715 H       
@<TRIPOS>BOND
   1    1    2 ar
   2    1    6 ar
   3    1    8 1
   4    2    3 ar
   5    2    9 1
   6    3    4 ar
   7    3   29 1
   8    4    5 ar
   9    4   30 1
  10    5    6 ar
  11    5   31 1
  12    7    8 am
  13    7    9 am
  14    7   10 2
  15    8   11 1
  16    9   27 1
  17   11   12 ar
  18   11   16 ar
  19   12   13 ar
  20   12   32 1
  21   13   14 ar
  22   13   33 1
  23   14   15 ar
  24   14   17 1
  25   15   16 ar
  26   15   34 1
  27   16   35 1
  28   17   25 1
  29   18   19 1
  30   18   23 1
  31   18   26 2
  32   19   20 2
  33   19   36 1
  34   20   21 1
  35   20   37 1
  36   21   22 2
  37   21   38 1
  38   22   23 1
  39   22   39 1
  40   23   24 1
  41   24   25 2
  42   25   26 1
  43   27   28 1
  44   27   40 1
  45   27   41 1
  46   28   42 1
  47   28   43 1
  48   28   44 1

#	End of record

