#	Name: ASD01940064
#	Creating user name:	WinNT
#	Creation time:	15. 06. 2019 20:11

#	Modifying user name:	WinNT
#	Modification time:	15. 06. 2019 20:11

#	Program:	/corina/corina34_cracker 3.40 0067  02.08.2006

@<TRIPOS>MOLECULE
ASD01940064
  33   35    0    0    0
SMALL
NO_CHARGES


@<TRIPOS>ATOM
   1 C1            -0.0463     1.3972    -0.4744 C.2     
   2 C2             0.9878     1.6086     0.3873 C.2     
   3 O3             0.0602     0.5969    -1.5465 O.3     
   4 C4            -1.3323     2.0681    -0.2159 C.ar    
   5 C5             2.2262     0.9689     0.1585 C.2     
   6 C6             2.3288     0.0914    -1.0249 C.ar    
   7 C7             1.2017    -0.0568    -1.8480 C.ar    
   8 C8            -2.5072     1.3139    -0.0848 C.ar    
   9 O9             3.1739     1.1352     0.9087 O.2     
  10 C10           -3.7169     1.9605     0.1600 C.ar    
  11 N11           -2.4652    -0.0735    -0.1990 N.pl3   
  12 C12           -1.3873     3.4605    -0.0943 C.ar    
  13 O13           -4.8612     1.2367     0.2890 O.3     
  14 C14            3.5116    -0.5803    -1.3283 C.ar    
  15 C15            1.2784    -0.8781    -2.9661 C.ar    
  16 C16           -2.5912     4.0838     0.1482 C.ar    
  17 C17           -3.7537     3.3392     0.2722 C.ar    
  18 C18           -6.0649     1.9651     0.5391 C.3     
  19 C19            3.5672    -1.3906    -2.4415 C.ar    
  20 C20            2.4542    -1.5371    -3.2562 C.ar    
  21 H21            0.8616     2.2607     1.2389 H       
  22 H22           -1.6120    -0.5279    -0.2797 H       
  23 H23           -3.2892    -0.5854    -0.1978 H       
  24 H24           -0.4854     4.0469    -0.1902 H       
  25 H25            4.3792    -0.4662    -0.6952 H       
  26 H26            0.4177    -1.0005    -3.6070 H       
  27 H27           -2.6298     5.1590     0.2419 H       
  28 H28           -4.6929     3.8376     0.4620 H       
  29 H29           -6.9002     1.2696     0.6205 H       
  30 H30           -5.9649     2.5234     1.4699 H       
  31 H31           -6.2476     2.6579    -0.2823 H       
  32 H32            4.4815    -1.9130    -2.6811 H       
  33 H33            2.5087    -2.1750    -4.1260 H       
@<TRIPOS>BOND
   1    1    2 2
   2    1    3 1
   3    1    4 1
   4    2    5 1
   5    2   21 1
   6    3    7 1
   7    4    8 ar
   8    4   12 ar
   9    5    6 1
  10    5    9 2
  11    6    7 ar
  12    6   14 ar
  13    7   15 ar
  14    8   10 ar
  15    8   11 1
  16   10   17 ar
  17   10   13 1
  18   11   22 1
  19   11   23 1
  20   12   16 ar
  21   12   24 1
  22   13   18 1
  23   14   19 ar
  24   14   25 1
  25   15   20 ar
  26   15   26 1
  27   16   17 ar
  28   16   27 1
  29   17   28 1
  30   18   29 1
  31   18   30 1
  32   18   31 1
  33   19   20 ar
  34   19   32 1
  35   20   33 1

#	End of record

