#	Name: ASD01028725
#	Creating user name:	WinNT
#	Creation time:	15. 06. 2019 18:58

#	Modifying user name:	WinNT
#	Modification time:	15. 06. 2019 18:58

#	Program:	/corina/corina34_cracker 3.40 0067  02.08.2006

@<TRIPOS>MOLECULE
ASD01028725
  50   53    0    0    0
SMALL
NO_CHARGES


@<TRIPOS>ATOM
   1 C1            -0.0184     1.5028     0.0103 C.2     
   2 C2             0.0021    -0.0041     0.0020 C.3     
   3 O3             1.0236     2.1234     0.0037 O.2     
   4 N4            -1.1946     2.1607     0.0195 N.am    
   5 N5            -1.2136     3.5616     0.0272 N.pl3   
   6 N6             4.8731    -1.8244     2.1386 N.ar    
   7 C7             5.0050    -2.0581     3.4210 C.ar    
   8 C8             3.9464    -1.8671     4.3148 C.ar    
   9 C9             2.7353    -1.4248     3.8517 C.ar    
  10 C10            2.6027    -1.1765     2.4733 C.ar    
  11 C11            1.3916    -0.7222     1.9265 C.ar    
  12 C12            1.3021    -0.4920     0.5875 C.ar    
  13 C13            2.3967    -0.7022    -0.2485 C.ar    
  14 C14            3.5851    -1.1429     0.2475 C.ar    
  15 C15            3.7173    -1.3915     1.6246 C.ar    
  16 O16            4.1186    -2.1199     5.6390 O.3     
  17 C17            5.4081    -2.5788     6.0496 C.3     
  18 C18           -2.4341     4.2443     0.0367 C.ar    
  19 C19           -2.4535     5.6360     0.0443 C.ar    
  20 C20           -3.6593     6.3133     0.0538 C.ar    
  21 C21           -4.8494     5.6120     0.0556 C.ar    
  22 C22           -4.8381     4.2193     0.0485 C.ar    
  23 C23           -3.6252     3.5355     0.0327 C.ar    
  24 N24           -8.2529     2.9837     0.0601 N.pl3   
  25 N25           -7.5332     1.7827     0.0508 N.2     
  26 C26           -6.2570     2.0636     0.0456 C.2     
  27 C27           -6.1173     3.4650     0.0515 C.2     
  28 C28           -7.3706     4.0036     0.0604 C.2     
  29 C29           -9.7124     3.1105     0.0628 C.3     
  30 F30           -1.2923     6.3265     0.0430 F       
  31 F31           -1.0647    -0.4891     0.7662 F       
  32 F32           -0.1191    -0.4649    -1.3134 F       
  33 H33           -2.0280     1.6644     0.0207 H       
  34 H34           -0.3802     4.0579     0.0259 H       
  35 H35            5.9551    -2.4074     3.7974 H       
  36 H36            1.9055    -1.2715     4.5258 H       
  37 H37            0.5362    -0.5560     2.5645 H       
  38 H38            2.3004    -0.5128    -1.3074 H       
  39 H39            4.4234    -1.3013    -0.4147 H       
  40 H40            6.1584    -1.8304     5.7943 H       
  41 H41            5.4096    -2.7419     7.1273 H       
  42 H42            5.6400    -3.5142     5.5403 H       
  43 H43           -3.6704     7.3932     0.0600 H       
  44 H44           -5.7893     6.1441     0.0630 H       
  45 H45           -3.6125     2.4557     0.0220 H       
  46 H46           -5.4499     1.3460     0.0384 H       
  47 H47           -7.6125     5.0561     0.0667 H       
  48 H48          -10.0731     3.1351     1.0911 H       
  49 H49           -9.9980     4.0320    -0.4446 H       
  50 H50          -10.1520     2.2588    -0.4562 H       
@<TRIPOS>BOND
   1    1    2 1
   2    1    3 2
   3    1    4 am
   4    2   12 1
   5    2   31 1
   6    2   32 1
   7    4    5 1
   8    4   33 1
   9    5   18 1
  10    5   34 1
  11    6    7 ar
  12    6   15 ar
  13    7    8 ar
  14    7   35 1
  15    8    9 ar
  16    8   16 1
  17    9   10 ar
  18    9   36 1
  19   10   11 ar
  20   10   15 ar
  21   11   12 ar
  22   11   37 1
  23   12   13 ar
  24   13   14 ar
  25   13   38 1
  26   14   15 ar
  27   14   39 1
  28   16   17 1
  29   17   40 1
  30   17   41 1
  31   17   42 1
  32   18   19 ar
  33   18   23 ar
  34   19   20 ar
  35   19   30 1
  36   20   21 ar
  37   20   43 1
  38   21   22 ar
  39   21   44 1
  40   22   23 ar
  41   22   27 1
  42   23   45 1
  43   24   25 1
  44   24   28 1
  45   24   29 1
  46   25   26 2
  47   26   27 1
  48   26   46 1
  49   27   28 2
  50   28   47 1
  51   29   48 1
  52   29   49 1
  53   29   50 1

#	End of record

