#	Name: ASD01940464
#	Creating user name:	WinNT
#	Creation time:	15. 06. 2019 20:12

#	Modifying user name:	WinNT
#	Modification time:	15. 06. 2019 20:12

#	Program:	/corina/corina34_cracker 3.40 0067  02.08.2006

@<TRIPOS>MOLECULE
ASD01940464
  46   49    0    0    0
SMALL
NO_CHARGES


@<TRIPOS>ATOM
   1 C1             0.8922     1.5100    -1.1249 C.ar    
   2 C2             0.9106     0.1081    -1.2385 C.ar    
   3 C3             1.2285    -0.6683    -0.1075 C.ar    
   4 C4             1.5150     0.0075     1.0930 C.ar    
   5 C5             1.4723     1.4079     1.1122 C.ar    
   6 N6             1.1715     2.0969     0.0372 N.ar    
   7 N7             0.3643     0.9063    -3.2191 N.2     
   8 N8             0.5527     1.9930    -2.3575 N.pl3   
   9 C9             0.5760    -0.2056    -2.5760 C.2     
  10 C10            1.8537    -0.7452     2.3100 C.2     
  11 O11            1.7954    -1.9593     2.3098 O.2     
  12 O12            2.2290    -0.0887     3.4260 O.3     
  13 C13            0.4100     3.4064    -2.7154 C.3     
  14 C14            1.7348     3.9387    -3.1979 C.ar    
  15 C15            2.0586     3.8699    -4.5403 C.ar    
  16 C16            3.2724     4.3571    -4.9850 C.ar    
  17 C17            4.1666     4.9158    -4.0835 C.ar    
  18 C18            3.8393     4.9837    -2.7370 C.ar    
  19 C19            2.6219     4.5002    -2.2982 C.ar    
  20 O20            5.3615     5.3954    -4.5185 O.3     
  21 C21            6.2323     5.9568    -3.5343 C.3     
  22 N22            1.2576    -2.0461    -0.1743 N.pl3   
  23 C23            0.1288    -2.7881     0.1900 C.ar    
  24 C24            0.1144    -4.1680     0.0124 C.ar    
  25 C25           -1.0030    -4.8975     0.3736 C.ar    
  26 C26           -2.1053    -4.2561     0.9104 C.ar    
  27 C27           -2.0931    -2.8845     1.0873 C.ar    
  28 C28           -0.9771    -2.1501     0.7346 C.ar    
  29 I29           -3.7969    -5.3651     1.4558 I       
  30 F30            1.1905    -4.7939    -0.5125 F       
  31 H31            1.6915     1.9310     2.0313 H       
  32 H32            0.5024    -1.1995    -2.9920 H       
  33 H33            2.4419    -0.6264     4.2010 H       
  34 H34           -0.3323     3.5076    -3.5072 H       
  35 H35            0.0879     3.9720    -1.8410 H       
  36 H36            1.3623     3.4345    -5.2417 H       
  37 H37            3.5251     4.3028    -6.0337 H       
  38 H38            4.5338     5.4181    -2.0332 H       
  39 H39            2.3646     4.5571    -1.2508 H       
  40 H40            5.7379     6.7985    -3.0494 H       
  41 H41            6.4746     5.1992    -2.7890 H       
  42 H42            7.1487     6.3008    -4.0139 H       
  43 H43            2.0607    -2.5003    -0.4737 H       
  44 H44           -1.0156    -5.9686     0.2364 H       
  45 H45           -2.9556    -2.3872     1.5059 H       
  46 H46           -0.9670    -1.0797     0.8781 H       
@<TRIPOS>BOND
   1    1    2 ar
   2    1    6 ar
   3    1    8 1
   4    2    3 ar
   5    2    9 1
   6    3    4 ar
   7    3   22 1
   8    4    5 ar
   9    4   10 1
  10    5    6 ar
  11    5   31 1
  12    7    8 1
  13    7    9 2
  14    8   13 1
  15    9   32 1
  16   10   11 2
  17   10   12 1
  18   12   33 1
  19   13   14 1
  20   13   34 1
  21   13   35 1
  22   14   15 ar
  23   14   19 ar
  24   15   16 ar
  25   15   36 1
  26   16   17 ar
  27   16   37 1
  28   17   18 ar
  29   17   20 1
  30   18   19 ar
  31   18   38 1
  32   19   39 1
  33   20   21 1
  34   21   40 1
  35   21   41 1
  36   21   42 1
  37   22   23 1
  38   22   43 1
  39   23   24 ar
  40   23   28 ar
  41   24   25 ar
  42   24   30 1
  43   25   26 ar
  44   25   44 1
  45   26   27 ar
  46   26   29 1
  47   27   28 ar
  48   27   45 1
  49   28   46 1

#	End of record

