#	Name: ASD01918581
#	Creating user name:	WinNT
#	Creation time:	15. 06. 2019 20:11

#	Modifying user name:	WinNT
#	Modification time:	15. 06. 2019 20:11

#	Program:	/corina/corina34_cracker 3.40 0067  02.08.2006

@<TRIPOS>MOLECULE
ASD01918581
  39   41    0    0    0
SMALL
NO_CHARGES


@<TRIPOS>ATOM
   1 C1            -0.0698     1.6671    -0.2280 C.3     
   2 C2            -0.0585     0.1611    -0.2834 C.ar    
   3 C3            -0.0481    -0.4755    -1.5112 C.ar    
   4 C4            -0.0377    -1.8669    -1.5570 C.ar    
   5 O5            -0.0269    -2.5235    -2.7450 O.3     
   6 C6             0.1055    -3.9456    -2.6991 C.3     
   7 H7             0.7515    -4.2412    -1.8724 H       
   8 C8             0.6625    -4.4816    -4.0404 C.3     
   9 C9            -0.1782    -5.7665    -4.2509 C.3     
  10 O10           -1.4840    -5.3994    -3.7563 O.3     
  11 C11           -1.2777    -4.6122    -2.5677 C.3     
  12 C12           -0.0382    -2.5685    -0.3544 C.ar    
  13 C13           -0.0491    -1.8569     0.8411 C.ar    
  14 N14           -0.0533    -0.5288     0.8374 N.ar    
  15 C15           -0.0498    -2.5873     2.1300 C.2     
  16 O16           -0.0409    -3.8023     2.1398 O.2     
  17 N17           -0.0602    -1.9041     3.2917 N.am    
  18 C18           -0.1691    -2.5875     4.5007 C.ar    
  19 C19           -0.2868    -1.8731     5.6875 C.ar    
  20 C20           -0.3948    -2.5645     6.8815 C.ar    
  21 C21           -0.3811    -3.9520     6.8468 C.ar    
  22 C22           -0.2612    -4.5969     5.6313 C.ar    
  23 N23           -0.1651    -3.9114     4.5085 N.ar    
  24 H24            0.9551     2.0378    -0.2147 H       
  25 H25           -0.5866     2.0590    -1.1041 H       
  26 H26           -0.5861     1.9936     0.6747 H       
  27 H27           -0.0484     0.1006    -2.4247 H       
  28 H28            0.4904    -3.7678    -4.8460 H       
  29 H29            1.7226    -4.7201    -3.9538 H       
  30 H30           -0.2270    -6.0243    -5.3089 H       
  31 H31            0.2330    -6.5934    -3.6719 H       
  32 H32           -1.2974    -5.2545    -1.6873 H       
  33 H33           -2.0512    -3.8483    -2.4891 H       
  34 H34           -0.0307    -3.6484    -0.3496 H       
  35 H35            0.0081    -0.9365     3.2859 H       
  36 H36           -0.2936    -0.7932     5.6779 H       
  37 H37           -0.4871    -2.0365     7.8191 H       
  38 H38           -0.4631    -4.5215     7.7608 H       
  39 H39           -0.2498    -5.6764     5.5995 H       
@<TRIPOS>BOND
   1    1    2 1
   2    1   24 1
   3    1   25 1
   4    1   26 1
   5    2   14 ar
   6    2    3 ar
   7    3    4 ar
   8    3   27 1
   9    4    5 1
  10    4   12 ar
  11    5    6 1
  12    6    7 1
  13    6   11 1
  14    6    8 1
  15    8    9 1
  16    8   28 1
  17    8   29 1
  18    9   10 1
  19    9   30 1
  20    9   31 1
  21   10   11 1
  22   11   32 1
  23   11   33 1
  24   12   13 ar
  25   12   34 1
  26   13   14 ar
  27   13   15 1
  28   15   16 2
  29   15   17 am
  30   17   18 1
  31   17   35 1
  32   18   23 ar
  33   18   19 ar
  34   19   20 ar
  35   19   36 1
  36   20   21 ar
  37   20   37 1
  38   21   22 ar
  39   21   38 1
  40   22   23 ar
  41   22   39 1

#	End of record

