#	Name: ASD02038800
#	Creating user name:	WinNT
#	Creation time:	15. 06. 2019 20:17

#	Modifying user name:	WinNT
#	Modification time:	15. 06. 2019 20:17

#	Program:	/corina/corina34_cracker 3.40 0067  02.08.2006

@<TRIPOS>MOLECULE
ASD02038800
  52   55    0    0    0
SMALL
NO_CHARGES


@<TRIPOS>ATOM
   1 C1            -1.2823    -0.8513     0.4656 C.2     
   2 C2            -0.0607    -0.0344     0.3017 C.2     
   3 N3             1.1368    -0.6350     0.1536 N.am    
   4 C4             1.2419    -2.0930     0.2502 C.3     
   5 C5             1.2142    -2.6913    -1.1327 C.ar    
   6 C6             2.3332     0.1703    -0.1038 C.3     
   7 O7            -0.1364     1.1788     0.3005 O.2     
   8 N8            -1.3377    -2.1953     0.4968 N.2     
   9 C9            -2.5931    -2.5288     0.6565 C.2     
  10 N10           -3.3112    -1.3925     0.7236 N.pl3   
  11 N11           -2.5060    -0.3927     0.6122 N.2     
  12 C12            2.3971    -3.0120    -1.7679 C.ar    
  13 C13            2.1213     1.0144    -1.3643 C.3     
  14 C14            3.3440     1.9098    -1.5810 C.3     
  15 O15            3.5436     2.7286    -0.4269 O.3     
  16 C16            3.7937     1.9944     0.7733 C.3     
  17 C17            2.5891     1.1024     1.0845 C.3     
  18 C18            0.0033    -2.9229    -1.7598 C.ar    
  19 C19           -0.0309    -3.4725    -3.0285 C.ar    
  20 C20            1.1471    -3.7935    -3.6768 C.ar    
  21 C21            2.3711    -3.5655    -3.0459 C.ar    
  22 C22           -4.7630    -1.3066     0.8997 C.3     
  23 C23            3.6395    -3.9074    -3.7354 C.ar    
  24 F24            1.1135    -4.3307    -4.9159 F       
  25 C25            3.8058    -5.1663    -4.3093 C.ar    
  26 C26            4.9873    -5.4793    -4.9499 C.ar    
  27 C27            6.0065    -4.5453    -5.0226 C.ar    
  28 C28            5.8461    -3.2933    -4.4540 C.ar    
  29 C29            4.6663    -2.9687    -3.8162 C.ar    
  30 Cl30           7.4909    -4.9456    -5.8289 Cl      
  31 H31            2.1779    -2.3580     0.7420 H       
  32 H32            0.4043    -2.4800     0.8304 H       
  33 H33            3.1915    -0.4867    -0.2450 H       
  34 H34           -2.9825    -3.5340     0.7221 H       
  35 H35            3.3413    -2.8338    -1.2748 H       
  36 H36            1.9934     0.3580    -2.2251 H       
  37 H37            1.2330     1.6342    -1.2426 H       
  38 H38            4.2251     1.2889    -1.7430 H       
  39 H39            3.1806     2.5437    -2.4525 H       
  40 H40            4.6807     1.3746     0.6421 H       
  41 H41            3.9542     2.6891     1.5977 H       
  42 H42            1.7102     1.7239     1.2557 H       
  43 H43            2.7957     0.5088     1.9751 H       
  44 H44           -0.9193    -2.6739    -1.2566 H       
  45 H45           -0.9792    -3.6515    -3.5132 H       
  46 H46           -4.9983    -1.2667     1.9633 H       
  47 H47           -5.1357    -0.4063     0.4111 H       
  48 H48           -5.2353    -2.1829     0.4557 H       
  49 H49            3.0115    -5.8959    -4.2526 H       
  50 H50            5.1171    -6.4547    -5.3951 H       
  51 H51            6.6443    -2.5682    -4.5129 H       
  52 H52            4.5421    -1.9917    -3.3729 H       
@<TRIPOS>BOND
   1    1    2 1
   2    1    8 1
   3    1   11 2
   4    2    3 am
   5    2    7 2
   6    3    4 1
   7    3    6 1
   8    4    5 1
   9    4   31 1
  10    4   32 1
  11    5   12 ar
  12    5   18 ar
  13    6   13 1
  14    6   17 1
  15    6   33 1
  16    8    9 2
  17    9   10 1
  18    9   34 1
  19   10   11 1
  20   10   22 1
  21   12   21 ar
  22   12   35 1
  23   13   14 1
  24   13   36 1
  25   13   37 1
  26   14   15 1
  27   14   38 1
  28   14   39 1
  29   15   16 1
  30   16   17 1
  31   16   40 1
  32   16   41 1
  33   17   42 1
  34   17   43 1
  35   18   19 ar
  36   18   44 1
  37   19   20 ar
  38   19   45 1
  39   20   21 ar
  40   20   24 1
  41   21   23 1
  42   22   46 1
  43   22   47 1
  44   22   48 1
  45   23   25 ar
  46   23   29 ar
  47   25   26 ar
  48   25   49 1
  49   26   27 ar
  50   26   50 1
  51   27   28 ar
  52   27   30 1
  53   28   29 ar
  54   28   51 1
  55   29   52 1

#	End of record

