#	Name: ASD01940446
#	Creating user name:	WinNT
#	Creation time:	15. 06. 2019 20:12

#	Modifying user name:	WinNT
#	Modification time:	15. 06. 2019 20:12

#	Program:	/corina/corina34_cracker 3.40 0067  02.08.2006

@<TRIPOS>MOLECULE
ASD01940446
  30   31    0    0    0
SMALL
NO_CHARGES


@<TRIPOS>ATOM
   1 N1            -0.0169     1.3941     0.0097 N.pl3   
   2 N2             0.0021    -0.0041     0.0020 N.2     
   3 C3             1.2306    -0.4352    -0.0120 C.2     
   4 C4             2.1103     0.7305    -0.0142 C.ar    
   5 C5             3.4971     0.8969    -0.0265 C.ar    
   6 C6             4.0305     2.1820    -0.0247 C.ar    
   7 C7             3.1790     3.2984    -0.0101 C.ar    
   8 C8             1.8269     3.1405     0.0020 C.ar    
   9 C9             1.2687     1.8611    -0.0001 C.ar    
  10 C10            5.4928     2.3720    -0.0376 C.2     
  11 O11            6.2308     1.4067    -0.0499 O.2     
  12 O12            6.0107     3.6159    -0.0359 O.3     
  13 Br13           4.6390    -0.6103    -0.0449 Br      
  14 C14            7.4584     3.7273    -0.0491 C.3     
  15 C15            8.0102     3.0540    -1.3073 C.3     
  16 C16            7.8562     5.2047    -0.0450 C.3     
  17 C17            8.0341     3.0406     1.1910 C.3     
  18 H18           -0.8150     1.9454     0.0166 H       
  19 H19            1.5430    -1.4690    -0.0206 H       
  20 H20            3.6010     4.2925    -0.0081 H       
  21 H21            1.1839     4.0081     0.0135 H       
  22 H22            7.6001     3.5433    -2.1908 H       
  23 H23            9.0969     3.1377    -1.3173 H       
  24 H24            7.7267     2.0016    -1.3103 H       
  25 H25            7.4631     5.6843     0.8514 H       
  26 H26            8.9430     5.2883    -0.0549 H       
  27 H27            7.4461     5.6939    -0.9285 H       
  28 H28            7.7506     1.9881     1.1880 H       
  29 H29            9.1208     3.1243     1.1811 H       
  30 H30            7.6409     3.5203     2.0874 H       
@<TRIPOS>BOND
   1    1    2 1
   2    1    9 1
   3    1   18 1
   4    2    3 2
   5    3    4 1
   6    3   19 1
   7    4    5 ar
   8    4    9 ar
   9    5    6 ar
  10    5   13 1
  11    6    7 ar
  12    6   10 1
  13    7    8 ar
  14    7   20 1
  15    8    9 ar
  16    8   21 1
  17   10   11 2
  18   10   12 1
  19   12   14 1
  20   14   15 1
  21   14   17 1
  22   14   16 1
  23   15   22 1
  24   15   23 1
  25   15   24 1
  26   16   25 1
  27   16   26 1
  28   16   27 1
  29   17   28 1
  30   17   29 1
  31   17   30 1

#	End of record

