#	Name: ASD03910125
#	Creating user name:	WinNT
#	Creation time:	15. 06. 2019 20:47

#	Modifying user name:	WinNT
#	Modification time:	15. 06. 2019 20:47

#	Program:	/corina/corina34_cracker 3.40 0067  02.08.2006

@<TRIPOS>MOLECULE
ASD03910125
  48   53    0    0    0
SMALL
NO_CHARGES


@<TRIPOS>ATOM
   1 S1            -0.0259     2.0557     0.0133 S.3     
   2 S2             0.0021    -0.0041     0.0020 S.3     
   3 N3             3.6759     2.7662    -0.7065 N.2     
   4 N4             2.4629     2.5376    -1.0643 N.2     
   5 C5             1.7050     2.3853    -0.0014 C.2     
   6 N6             2.5143     2.5315     1.0904 N.pl3   
   7 C7             3.7661     2.7738     0.5932 C.2     
   8 O8             4.7361     2.8226     2.7916 O.3     
   9 C9             5.0175     3.0068     1.3999 C.3     
  10 C10            6.0943     1.9934     0.9892 C.3     
  11 O11            7.2621     2.2344     1.7818 O.3     
  12 C12            7.0693     2.4083     3.1179 C.ar    
  13 C13            5.8081     2.7047     3.6220 C.ar    
  14 C14            8.1467     2.2884     3.9824 C.ar    
  15 C15            7.9670     2.4650     5.3417 C.ar    
  16 C16            6.7134     2.7612     5.8427 C.ar    
  17 C17            5.6350     2.8818     4.9863 C.ar    
  18 C18            0.1739    -0.3172     1.7274 C.2     
  19 C19           -0.2312    -0.6977     3.8355 C.2     
  20 O20           -2.3360    -1.0193     4.9502 O.3     
  21 C21           -0.9212    -0.9374     5.1537 C.3     
  22 C22           -0.4442    -2.2671     5.7533 C.3     
  23 O23           -1.1271    -2.4691     6.9954 O.3     
  24 C24           -2.4702    -2.2484     6.9979 C.ar    
  25 C25           -3.0736    -1.5220     5.9777 C.ar    
  26 C26           -3.2414    -2.7551     8.0328 C.ar    
  27 C27           -4.6063    -2.5367     8.0505 C.ar    
  28 C28           -5.2060    -1.8132     7.0371 C.ar    
  29 C29           -4.4430    -1.3055     6.0022 C.ar    
  30 N30            1.0553    -0.6617     3.6330 N.2     
  31 N31            1.3016    -0.4357     2.3921 N.2     
  32 N32           -0.8402    -0.4772     2.6298 N.pl3   
  33 H33            2.2551     2.4756     2.0234 H       
  34 H34            5.3813     4.0201     1.2295 H       
  35 H35            5.7325     0.9806     1.1662 H       
  36 H36            6.3342     2.1194    -0.0666 H       
  37 H37            9.1272     2.0564     3.5935 H       
  38 H38            8.8075     2.3710     6.0132 H       
  39 H39            6.5763     2.8993     6.9050 H       
  40 H40            4.6566     3.1140     5.3803 H       
  41 H41           -0.6952    -0.1217     5.8404 H       
  42 H42           -0.6766    -3.0832     5.0691 H       
  43 H43            0.6311    -2.2273     5.9272 H       
  44 H44           -2.7753    -3.3214     8.8256 H       
  45 H45           -5.2051    -2.9325     8.8575 H       
  46 H46           -6.2725    -1.6437     7.0541 H       
  47 H47           -4.9140    -0.7399     5.2119 H       
  48 H48           -1.7932    -0.4414     2.4526 H       
@<TRIPOS>BOND
   1    1    2 1
   2    1    5 1
   3    2   18 1
   4    3    4 1
   5    3    7 2
   6    4    5 2
   7    5    6 1
   8    6    7 1
   9    6   33 1
  10    7    9 1
  11    8    9 1
  12    8   13 1
  13    9   10 1
  14    9   34 1
  15   10   11 1
  16   10   35 1
  17   10   36 1
  18   11   12 1
  19   12   13 ar
  20   12   14 ar
  21   13   17 ar
  22   14   15 ar
  23   14   37 1
  24   15   16 ar
  25   15   38 1
  26   16   17 ar
  27   16   39 1
  28   17   40 1
  29   18   32 1
  30   18   31 2
  31   19   21 1
  32   19   30 2
  33   19   32 1
  34   20   21 1
  35   20   25 1
  36   21   22 1
  37   21   41 1
  38   22   23 1
  39   22   42 1
  40   22   43 1
  41   23   24 1
  42   24   25 ar
  43   24   26 ar
  44   25   29 ar
  45   26   27 ar
  46   26   44 1
  47   27   28 ar
  48   27   45 1
  49   28   29 ar
  50   28   46 1
  51   29   47 1
  52   30   31 1
  53   32   48 1

#	End of record

