#	Name: ASD04590462
#	Creating user name:	WinNT
#	Creation time:	15. 06. 2019 20:50

#	Modifying user name:	WinNT
#	Modification time:	15. 06. 2019 20:50

#	Program:	/corina/corina34_cracker 3.40 0067  02.08.2006

@<TRIPOS>MOLECULE
ASD04590462
  50   54    0    0    0
SMALL
NO_CHARGES


@<TRIPOS>ATOM
   1 C1            -0.0169     1.3919     0.0097 C.ar    
   2 C2             0.0021    -0.0041     0.0020 C.ar    
   3 C3            -2.4013    -0.0383     0.0248 C.ar    
   4 C4            -2.4140     1.3672     0.0440 C.ar    
   5 C5            -1.2195     2.0733     0.0306 C.ar    
   6 N6            -3.6930    -0.4516     0.0445 N.2     
   7 C7            -4.4887     0.5897     0.0742 C.2     
   8 N8            -3.7459     1.7405     0.0752 N.pl3   
   9 C9            -5.9648     0.5309     0.1023 C.2     
  10 C10           -6.7501    -0.6451     0.1023 C.2     
  11 C11           -8.0528    -0.2722     0.1335 C.2     
  12 N12           -8.0970     1.0860     0.1526 N.pl3   
  13 N13           -6.7813     1.5657     0.1376 N.2     
  14 N14           -6.2667    -1.9634     0.0741 N.am    
  15 C15           -7.1304    -2.9980     0.0777 C.2     
  16 O16           -8.3281    -2.7901     0.1052 O.2     
  17 C17           -6.6219    -4.3848     0.0481 C.2     
  18 C18           -1.1781    -0.7176     0.0095 C.ar    
  19 C19           -7.4042    -5.5530     0.0481 C.2     
  20 O20            1.1915    -0.6643    -0.0133 O.3     
  21 N21           -6.5686    -6.5647     0.0169 N.2     
  22 N22           -5.2732    -6.0310    -0.0024 N.pl3   
  23 N23           -5.3522    -4.7464     0.0111 N.2     
  24 O24            1.1536     2.0847     0.0022 O.3     
  25 C25            1.0634     3.5109     0.0108 C.3     
  26 C26            1.1408    -2.0924    -0.0205 C.3     
  27 C27           -4.0856    -6.7745    -0.0372 C.ar    
  28 C28           -4.1344    -8.1621    -0.0558 C.ar    
  29 C29           -2.9632    -8.8929    -0.0900 C.ar    
  30 C30           -1.7404    -8.2427    -0.1057 C.ar    
  31 C31           -1.6897    -6.8587    -0.0871 C.ar    
  32 C32           -2.8588    -6.1244    -0.0587 C.ar    
  33 F33           -0.5957    -8.9593    -0.1386 F       
  34 H34           -1.2293     3.1532     0.0368 H       
  35 H35           -4.0893     2.6474     0.0942 H       
  36 H36           -8.9044    -0.9363     0.1417 H       
  37 H37           -8.9004     1.6289     0.1761 H       
  38 H38           -5.3112    -2.1293     0.0521 H       
  39 H39           -1.1583    -1.7974     0.0031 H       
  40 H40           -8.4827    -5.6073     0.0701 H       
  41 H41            0.5362     3.8362     0.9076 H       
  42 H42            2.0660     3.9384     0.0035 H       
  43 H43            0.5192     3.8458    -0.8723 H       
  44 H44            0.6232    -2.4420     0.8728 H       
  45 H45            0.6056    -2.4325    -0.9070 H       
  46 H46            2.1548    -2.4919    -0.0327 H       
  47 H47           -5.0877    -8.6695    -0.0432 H       
  48 H48           -3.0008    -9.9721    -0.1041 H       
  49 H49           -0.7352    -6.3535    -0.0994 H       
  50 H50           -2.8188    -5.0452    -0.0443 H       
@<TRIPOS>BOND
   1    1    2 ar
   2    1   24 1
   3    1    5 ar
   4    2   18 ar
   5    2   20 1
   6    3    4 ar
   7    3    6 1
   8    3   18 ar
   9    4    5 ar
  10    4    8 1
  11    5   34 1
  12    6    7 2
  13    7    8 1
  14    7    9 1
  15    8   35 1
  16    9   10 1
  17    9   13 2
  18   10   11 2
  19   10   14 1
  20   11   12 1
  21   11   36 1
  22   12   13 1
  23   12   37 1
  24   14   15 am
  25   14   38 1
  26   15   16 2
  27   15   17 1
  28   17   19 1
  29   17   23 2
  30   18   39 1
  31   19   21 2
  32   19   40 1
  33   20   26 1
  34   21   22 1
  35   22   23 1
  36   22   27 1
  37   24   25 1
  38   25   41 1
  39   25   42 1
  40   25   43 1
  41   26   44 1
  42   26   45 1
  43   26   46 1
  44   27   28 ar
  45   27   32 ar
  46   28   29 ar
  47   28   47 1
  48   29   30 ar
  49   29   48 1
  50   30   31 ar
  51   30   33 1
  52   31   32 ar
  53   31   49 1
  54   32   50 1

#	End of record

