#	Name: ASD03092924
#	Creating user name:	WinNT
#	Creation time:	15. 06. 2019 20:33

#	Modifying user name:	WinNT
#	Modification time:	15. 06. 2019 20:33

#	Program:	/corina/corina34_cracker 3.40 0067  02.08.2006

@<TRIPOS>MOLECULE
ASD03092924
  53   56    0    0    0
SMALL
NO_CHARGES


@<TRIPOS>ATOM
   1 C1            -0.0179     1.4903     0.0195 C.3     
   2 C2             0.0028    -0.0165     0.0037 C.2     
   3 C3            -0.0892    -0.8136    -1.1201 C.2     
   4 C4            -0.2238    -0.3697    -2.5073 C.2     
   5 O5            -1.3237    -0.2848    -3.0132 O.2     
   6 C6             1.0032    -0.0178    -3.3082 C.3     
   7 C7             0.6000     0.2840    -4.7529 C.3     
   8 C8             0.8416     1.7028    -5.2721 C.3     
   9 C9             1.7219     0.5498    -5.7587 C.3     
  10 C10           -0.0239    -2.2057    -0.6337 C.2     
  11 C11            0.0995    -2.1280     0.7147 C.2     
  12 C12            0.2038    -3.3023     1.6534 C.3     
  13 N13            0.1201    -0.8143     1.0833 N.pl3   
  14 C14            0.2430    -0.3578     2.4028 C.ar    
  15 C15            1.4132    -0.5907     3.1129 C.ar    
  16 C16            1.5319    -0.1400     4.4130 C.ar    
  17 C17            0.4857     0.5432     5.0079 C.ar    
  18 Cl18           0.6382     1.1090     6.6420 Cl      
  19 C19           -0.6816     0.7766     4.3022 C.ar    
  20 C20           -0.8030     0.3329     2.9999 C.ar    
  21 C21           -0.0819    -3.4396    -1.4535 C.ar    
  22 C22           -1.2386    -3.7522    -2.1659 C.ar    
  23 C23           -1.2882    -4.9020    -2.9279 C.ar    
  24 C24           -0.1935    -5.7448    -2.9858 C.ar    
  25 C25            0.9595    -5.4404    -2.2797 C.ar    
  26 F26            2.0257    -6.2679    -2.3398 F       
  27 C27            1.0220    -4.2882    -1.5191 C.ar    
  28 S28           -0.2649    -7.2110    -3.9602 S.o2    
  29 N29            0.8410    -7.0424    -5.1813 N.am    
  30 O30            0.2079    -8.2657    -3.1335 O.2     
  31 O31           -1.5451    -7.2211    -4.5768 O.2     
  32 H32            1.0047     1.8677     0.0155 H       
  33 H33           -0.5435     1.8557    -0.8627 H       
  34 H34           -0.5297     1.8372     0.9171 H       
  35 H35            1.4815     0.8599    -2.8736 H       
  36 H36            1.6998    -0.8561    -3.2930 H       
  37 H37           -0.2851    -0.2402    -5.1133 H       
  38 H38            0.1153     2.1123    -5.9741 H       
  39 H39            1.2878     2.4212    -4.5845 H       
  40 H40            2.7473     0.5097    -5.3911 H       
  41 H41            1.5747     0.2009    -6.7808 H       
  42 H42            1.2522    -3.5701     1.7852 H       
  43 H43           -0.2272    -3.0355     2.6184 H       
  44 H44           -0.3381    -4.1508     1.2355 H       
  45 H45            2.2297    -1.1241     2.6492 H       
  46 H46            2.4417    -0.3212     4.9659 H       
  47 H47           -1.4968     1.3097     4.7687 H       
  48 H48           -1.7124     0.5191     2.4481 H       
  49 H49           -2.0950    -3.0957    -2.1215 H       
  50 H50           -2.1843    -5.1443    -3.4799 H       
  51 H51            1.9222    -4.0486    -0.9727 H       
  52 H52            1.2780    -7.8253    -5.5514 H       
  53 H53            1.0516    -6.1608    -5.5265 H       
@<TRIPOS>BOND
   1    1    2 1
   2    1   32 1
   3    1   33 1
   4    1   34 1
   5    2   13 1
   6    2    3 2
   7    3    4 1
   8    3   10 1
   9    4    5 2
  10    4    6 1
  11    6    7 1
  12    6   35 1
  13    6   36 1
  14    7    9 1
  15    7    8 1
  16    7   37 1
  17    8    9 1
  18    8   38 1
  19    8   39 1
  20    9   40 1
  21    9   41 1
  22   10   11 2
  23   10   21 1
  24   11   12 1
  25   11   13 1
  26   12   42 1
  27   12   43 1
  28   12   44 1
  29   13   14 1
  30   14   20 ar
  31   14   15 ar
  32   15   16 ar
  33   15   45 1
  34   16   17 ar
  35   16   46 1
  36   17   18 1
  37   17   19 ar
  38   19   20 ar
  39   19   47 1
  40   20   48 1
  41   21   27 ar
  42   21   22 ar
  43   22   23 ar
  44   22   49 1
  45   23   24 ar
  46   23   50 1
  47   24   25 ar
  48   24   28 1
  49   25   26 1
  50   25   27 ar
  51   27   51 1
  52   28   29 am
  53   28   30 2
  54   28   31 2
  55   29   52 1
  56   29   53 1

#	End of record

