#	Name: ASD01028791
#	Creating user name:	WinNT
#	Creation time:	15. 06. 2019 18:58

#	Modifying user name:	WinNT
#	Modification time:	15. 06. 2019 18:58

#	Program:	/corina/corina34_cracker 3.40 0067  02.08.2006

@<TRIPOS>MOLECULE
ASD01028791
  42   46    0    0    0
SMALL
NO_CHARGES


@<TRIPOS>ATOM
   1 N1            -0.0157     1.3066     0.0092 N.ar    
   2 C2             0.0021    -0.0041     0.0020 C.ar    
   3 C3             1.1967    -0.7211    -0.0128 C.ar    
   4 C4             2.3902    -0.0572    -0.0206 C.ar    
   5 C5             2.3672     1.3504    -0.0132 C.ar    
   6 C6             3.5535     2.1011    -0.0200 C.ar    
   7 C7             3.4892     3.4613    -0.0122 C.ar    
   8 C8             2.2611     4.1187     0.0030 C.ar    
   9 C9             1.0917     3.4224     0.0100 C.ar    
  10 C10            1.1167     2.0170     0.0022 C.ar    
  11 C11            4.7634     4.2659    -0.0195 C.3     
  12 C12            6.2430     5.2352    -3.2140 C.2     
  13 C13            7.2618     5.8865    -3.9411 C.2     
  14 C14            8.2646     6.5126    -3.2689 C.2     
  15 C15            8.2717     6.5020    -1.8547 C.2     
  16 C16            7.2808     5.8692    -1.1716 C.2     
  17 N17            6.2729     5.2394    -1.8418 N.pl3   
  18 N18            4.5411     4.1558    -2.5202 N.2     
  19 N19            5.1612     4.5621    -3.5718 N.2     
  20 C20            5.1751     4.5418    -1.4427 C.2     
  21 N21           10.6919     8.7304    -0.3152 N.pl3   
  22 N22           11.1146     7.4912     0.1810 N.2     
  23 C23           10.3254     6.5634    -0.2926 C.2     
  24 C24            9.3643     7.1836    -1.1139 C.2     
  25 C25            9.6190     8.5234    -1.1064 C.2     
  26 C26           11.3048    10.0281    -0.0210 C.3     
  27 F27            7.2416     5.8877    -5.2920 F       
  28 F28            4.5538     5.4772     0.6484 F       
  29 F29            5.7736     3.5456     0.6270 F       
  30 H30           -0.9341    -0.5425     0.0081 H       
  31 H31            1.1789    -1.8009    -0.0177 H       
  32 H32            3.3255    -0.5970    -0.0317 H       
  33 H33            4.5116     1.6027    -0.0311 H       
  34 H34            2.2365     5.1984     0.0097 H       
  35 H35            0.1481     3.9476     0.0221 H       
  36 H36            9.0513     7.0150    -3.8121 H       
  37 H37            7.2918     5.8647    -0.0917 H       
  38 H38           10.3980     5.5051    -0.0897 H       
  39 H39            9.0626     9.2814    -1.6376 H       
  40 H40           12.0803    10.2389    -0.7574 H       
  41 H41           10.5436    10.8071    -0.0619 H       
  42 H42           11.7467    10.0037     0.9751 H       
@<TRIPOS>BOND
   1    1    2 ar
   2    1   10 ar
   3    2    3 ar
   4    2   30 1
   5    3    4 ar
   6    3   31 1
   7    4    5 ar
   8    4   32 1
   9    5    6 ar
  10    5   10 ar
  11    6    7 ar
  12    6   33 1
  13    7    8 ar
  14    7   11 1
  15    8    9 ar
  16    8   34 1
  17    9   10 ar
  18    9   35 1
  19   11   20 1
  20   11   28 1
  21   11   29 1
  22   12   13 1
  23   12   17 1
  24   12   19 2
  25   13   14 2
  26   13   27 1
  27   14   15 1
  28   14   36 1
  29   15   16 2
  30   15   24 1
  31   16   17 1
  32   16   37 1
  33   17   20 1
  34   18   19 1
  35   18   20 2
  36   21   22 1
  37   21   25 1
  38   21   26 1
  39   22   23 2
  40   23   24 1
  41   23   38 1
  42   24   25 2
  43   25   39 1
  44   26   40 1
  45   26   41 1
  46   26   42 1

#	End of record

