#	Name: ASD01882409
#	Creating user name:	WinNT
#	Creation time:	15. 06. 2019 19:44

#	Modifying user name:	WinNT
#	Modification time:	15. 06. 2019 19:44

#	Program:	/corina/corina34_cracker 3.40 0067  02.08.2006

@<TRIPOS>MOLECULE
ASD01882409
  47   50    0    0    0
SMALL
NO_CHARGES


@<TRIPOS>ATOM
   1 C1             0.8748     1.7002     0.5432 C.2     
   2 C2             0.9740     0.3126     0.7466 C.2     
   3 C3             1.2328    -0.5014    -0.3232 C.2     
   4 C4             1.3947     0.0647    -1.6062 C.2     
   5 C5             1.2955     1.3974    -1.7783 C.2     
   6 N6             1.0378     2.2178    -0.7188 N.pl3   
   7 N7             0.6466     3.8168     0.6708 N.2     
   8 N8             0.6350     2.7235     1.3491 N.2     
   9 C9             0.8857     3.5671    -0.5897 C.2     
  10 C10            0.9747     4.5840    -1.6983 C.3     
  11 C11           -0.4111     4.7914    -2.3125 C.3     
  12 F12           -1.2934     5.2502    -1.3285 F       
  13 F13           -0.3286     5.7355    -3.3417 F       
  14 F14           -0.8786     3.5782    -2.8290 F       
  15 N15            1.3361    -1.8792    -0.1469 N.pl3   
  16 C16            2.6008    -2.5815    -0.4122 C.3     
  17 C17            2.3145    -3.7648    -1.3428 C.3     
  18 N18            1.2528    -4.5962    -0.7601 N.3     
  19 C19           -0.0078    -3.8502    -0.6493 C.3     
  20 C20            0.1851    -2.6695     0.3155 C.3     
  21 C21            3.5844    -4.6017    -1.5101 C.3     
  22 C22            1.0765    -5.7706    -1.4952 C.ar    
  23 C23            1.2597    -7.0057    -0.8871 C.ar    
  24 C24            1.0845    -8.1677    -1.6171 C.ar    
  25 C25            0.7273    -8.1000    -2.9532 C.ar    
  26 C26            0.5446    -6.8695    -3.5617 C.ar    
  27 C27            0.7122    -5.7051    -2.8338 C.ar    
  28 F28            0.1965    -6.8063    -4.8655 F       
  29 F29            1.2626    -9.3695    -1.0260 F       
  30 Cl30           0.7715    -0.3598     2.3343 Cl      
  31 H31            1.5993    -0.5732    -2.4534 H       
  32 H32            1.4214     1.8203    -2.7641 H       
  33 H33            1.3390     5.5293    -1.2959 H       
  34 H34            1.6621     4.2265    -2.4650 H       
  35 H35            3.3042    -1.9006    -0.8916 H       
  36 H36            3.0209    -2.9461     0.5252 H       
  37 H37            1.9928    -3.3930    -2.3156 H       
  38 H38           -0.2972    -3.4772    -1.6318 H       
  39 H39           -0.7873    -4.5083    -0.2655 H       
  40 H40            0.3773    -3.0424     1.3215 H       
  41 H41           -0.7095    -2.0467     0.3176 H       
  42 H42            3.8478    -5.0571    -0.5554 H       
  43 H43            3.4098    -5.3832    -2.2495 H       
  44 H44            4.4004    -3.9609    -1.8444 H       
  45 H45            1.5390    -7.0590     0.1548 H       
  46 H46            0.5913    -9.0081    -3.5217 H       
  47 H47            0.5645    -4.7458    -3.3073 H       
@<TRIPOS>BOND
   1    1    2 1
   2    1    6 1
   3    1    8 2
   4    2    3 2
   5    2   30 1
   6    3    4 1
   7    3   15 1
   8    4    5 2
   9    4   31 1
  10    5    6 1
  11    5   32 1
  12    6    9 1
  13    7    8 1
  14    7    9 2
  15    9   10 1
  16   10   11 1
  17   10   33 1
  18   10   34 1
  19   11   12 1
  20   11   13 1
  21   11   14 1
  22   15   16 1
  23   15   20 1
  24   16   17 1
  25   16   35 1
  26   16   36 1
  27   17   18 1
  28   17   21 1
  29   17   37 1
  30   18   19 1
  31   18   22 1
  32   19   20 1
  33   19   38 1
  34   19   39 1
  35   20   40 1
  36   20   41 1
  37   21   42 1
  38   21   43 1
  39   21   44 1
  40   22   23 ar
  41   22   27 ar
  42   23   24 ar
  43   23   45 1
  44   24   25 ar
  45   24   29 1
  46   25   26 ar
  47   25   46 1
  48   26   27 ar
  49   26   28 1
  50   27   47 1

#	End of record

