#	Name: ASD01940288
#	Creating user name:	WinNT
#	Creation time:	15. 06. 2019 20:12

#	Modifying user name:	WinNT
#	Modification time:	15. 06. 2019 20:12

#	Program:	/corina/corina34_cracker 3.40 0067  02.08.2006

@<TRIPOS>MOLECULE
ASD01940288
  30   32    0    0    0
SMALL
NO_CHARGES


@<TRIPOS>ATOM
   1 C1            -0.0162     1.3421     0.0094 C.2     
   2 N2             0.0021    -0.0041     0.0020 N.am    
   3 C3             1.3316    -0.4260    -0.0129 C.ar    
   4 C4             2.1198     0.7246    -0.0143 C.ar    
   5 N5             1.2453     1.8126    -0.0001 N.am    
   6 C6             3.5059     0.6153    -0.0277 C.ar    
   7 C7             4.0982    -0.6370    -0.0397 C.ar    
   8 C8             3.3138    -1.7796    -0.0383 C.ar    
   9 C9             1.9331    -1.6776    -0.0254 C.ar    
  10 O10           -1.0205     2.0294     0.0181 O.2     
  11 O11            4.2781     1.7350    -0.0295 O.3     
  12 C12            5.6945     1.5461    -0.0436 C.3     
  13 C13           -1.1236    -0.8397     0.0083 C.ar    
  14 C14           -1.6709    -1.2603     1.2138 C.ar    
  15 C15           -2.7801    -2.0836     1.2175 C.ar    
  16 C16           -3.3459    -2.4900     0.0206 C.ar    
  17 C17           -2.8017    -2.0717    -1.1819 C.ar    
  18 C18           -1.6962    -1.2432    -1.1900 C.ar    
  19 I19           -0.8144    -0.6469     3.0246 I       
  20 F20           -4.4302    -3.2959     0.0262 F       
  21 F21            1.1723    -2.7940    -0.0236 F       
  22 F22            3.8986    -2.9974    -0.0505 F       
  23 H23            1.5025     2.7479     0.0022 H       
  24 H24            5.1747    -0.7232    -0.0505 H       
  25 H25            6.1905     2.5167    -0.0436 H       
  26 H26            5.9950     0.9845     0.8409 H       
  27 H27            5.9785     0.9930    -0.9389 H       
  28 H28           -3.2061    -2.4110     2.1544 H       
  29 H29           -3.2443    -2.3900    -2.1142 H       
  30 H30           -1.2748    -0.9137    -2.1282 H       
@<TRIPOS>BOND
   1    1    2 am
   2    1    5 am
   3    1   10 2
   4    2    3 1
   5    2   13 1
   6    3    4 ar
   7    3    9 ar
   8    4    5 1
   9    4    6 ar
  10    5   23 1
  11    6    7 ar
  12    6   11 1
  13    7    8 ar
  14    7   24 1
  15    8    9 ar
  16    8   22 1
  17    9   21 1
  18   11   12 1
  19   12   25 1
  20   12   26 1
  21   12   27 1
  22   13   14 ar
  23   13   18 ar
  24   14   15 ar
  25   14   19 1
  26   15   16 ar
  27   15   28 1
  28   16   17 ar
  29   16   20 1
  30   17   18 ar
  31   17   29 1
  32   18   30 1

#	End of record

