#	Name: ASD02039085
#	Creating user name:	WinNT
#	Creation time:	15. 06. 2019 20:17

#	Modifying user name:	WinNT
#	Modification time:	15. 06. 2019 20:17

#	Program:	/corina/corina34_cracker 3.40 0067  02.08.2006

@<TRIPOS>MOLECULE
ASD02039085
  42   45    0    0    0
SMALL
NO_CHARGES


@<TRIPOS>ATOM
   1 N1            -0.6922     1.0649    -1.3615 N.2     
   2 N2            -0.5240    -0.1774    -1.0722 N.2     
   3 C3             0.3349     1.7540    -0.9277 C.2     
   4 O4             1.1790     0.8856    -0.3403 O.3     
   5 C5             0.6071    -0.3295    -0.4479 C.2     
   6 N6             0.5178     3.1198    -1.0512 N.pl3   
   7 C7            -0.5034     3.9171    -1.5773 C.ar    
   8 C8             1.1746    -1.6290     0.0624 C.3     
   9 O9             0.1482    -2.3690     0.7264 O.3     
  10 C10            1.7136    -2.4467    -1.1131 C.3     
  11 C11            0.5453    -3.2740     1.6601 C.ar    
  12 C12            1.8904    -3.5225     1.8474 C.ar    
  13 C13           -0.4065    -3.9415     2.4268 C.ar    
  14 C14           -0.0226    -4.8611     3.3780 C.ar    
  15 C15            1.3269    -5.1302     3.5792 C.ar    
  16 C16            2.2926    -4.4542     2.8096 C.ar    
  17 C17           -1.8323     3.5725    -1.3686 C.ar    
  18 C18           -0.1902     5.0585    -2.3048 C.ar    
  19 C19           -1.2002     5.8448    -2.8231 C.ar    
  20 C20           -2.5240     5.4974    -2.6182 C.ar    
  21 C21           -2.8397     4.3629    -1.8895 C.ar    
  22 N22            1.7319    -6.0484     4.5268 N.am    
  23 C23            3.0358    -6.3106     4.7229 C.2     
  24 C24            4.0422    -5.6636     3.9745 C.2     
  25 C25            3.7098    -4.7477     3.0315 C.2     
  26 O26            3.3569    -7.1276     5.5686 O.2     
  27 Cl27          -4.5015     3.9302    -1.6346 Cl      
  28 Cl28          -3.7910     6.4886    -3.2708 Cl      
  29 H29            1.3543     3.5243    -0.7729 H       
  30 H30            1.9841    -1.4220     0.7624 H       
  31 H31            0.9041    -2.6537    -1.8132 H       
  32 H32            2.4965    -1.8823    -1.6196 H       
  33 H33            2.1240    -3.3866    -0.7441 H       
  34 H34            2.6272    -3.0010     1.2544 H       
  35 H35           -1.4558    -3.7361     2.2745 H       
  36 H36           -0.7692    -5.3724     3.9675 H       
  37 H37           -2.0786     2.6878    -0.8002 H       
  38 H38            0.8426     5.3309    -2.4646 H       
  39 H39           -0.9567     6.7321    -3.3886 H       
  40 H40            1.0660    -6.5109     5.0594 H       
  41 H41            5.0811    -5.8960     4.1561 H       
  42 H42            4.4737    -4.2481     2.4541 H       
@<TRIPOS>BOND
   1    1    2 1
   2    1    3 2
   3    2    5 2
   4    3    4 1
   5    3    6 1
   6    4    5 1
   7    5    8 1
   8    6    7 1
   9    6   29 1
  10    7   17 ar
  11    7   18 ar
  12    8    9 1
  13    8   10 1
  14    8   30 1
  15    9   11 1
  16   10   31 1
  17   10   32 1
  18   10   33 1
  19   11   12 ar
  20   11   13 ar
  21   12   16 ar
  22   12   34 1
  23   13   14 ar
  24   13   35 1
  25   14   15 ar
  26   14   36 1
  27   15   16 ar
  28   15   22 1
  29   16   25 1
  30   17   21 ar
  31   17   37 1
  32   18   19 ar
  33   18   38 1
  34   19   20 ar
  35   19   39 1
  36   20   21 ar
  37   20   28 1
  38   21   27 1
  39   22   23 am
  40   22   40 1
  41   23   24 1
  42   23   26 2
  43   24   25 2
  44   24   41 1
  45   25   42 1

#	End of record

