#	Name: ASD01910499
#	Creating user name:	WinNT
#	Creation time:	15. 06. 2019 19:55

#	Modifying user name:	WinNT
#	Modification time:	15. 06. 2019 19:55

#	Program:	/corina/corina34_cracker 3.40 0067  02.08.2006

@<TRIPOS>MOLECULE
ASD01910499
  43   46    0    0    0
SMALL
NO_CHARGES


@<TRIPOS>ATOM
   1 C1             0.0534     1.4668     0.0501 C.ar    
   2 C2             0.0584    -0.0169     0.0330 C.2     
   3 N3            -1.0271    -0.8234     0.0358 N.2     
   4 C4            -0.5571    -2.0458     0.0161 C.2     
   5 O5             0.7764    -1.9547     0.0022 O.3     
   6 N6             1.1133    -0.7895     0.0068 N.2     
   7 C7            -1.3675    -3.3163     0.0108 C.3     
   8 C8            -1.0487    -4.1202    -1.2518 C.3     
   9 C9            -1.8954    -5.3949    -1.2744 C.3     
  10 C10           -1.5502    -6.2541    -0.0541 C.3     
  11 N11           -1.7155    -5.4413     1.1586 N.am    
  12 C12           -1.0163    -4.1520     1.2457 C.3     
  13 C13           -2.4937    -5.8702     2.1720 C.2     
  14 C14           -3.2657    -7.1252     2.0321 C.ar    
  15 O15           -2.5616    -5.2265     3.2006 O.2     
  16 C16           -2.6323    -8.3251     1.6929 C.ar    
  17 C17           -3.3908    -9.4727     1.5734 C.ar    
  18 N18           -4.6936    -9.4490     1.7734 N.ar    
  19 C19           -5.3325    -8.3424     2.0945 C.ar    
  20 C20           -4.6507    -7.1459     2.2415 C.ar    
  21 C21            1.2567     2.1697     0.0449 C.ar    
  22 C22            1.2475     3.5492     0.0603 C.ar    
  23 C23            0.0441     4.2358     0.0814 C.ar    
  24 C24           -1.1547     3.5408     0.0867 C.ar    
  25 C25           -1.1546     2.1614     0.0656 C.ar    
  26 F26            0.0396     5.5867     0.0974 F       
  27 F27           -5.3121    -6.0150     2.5713 F       
  28 H28           -2.4294    -3.0706     0.0271 H       
  29 H29           -1.2746    -3.5185    -2.1322 H       
  30 H30            0.0083    -4.3863    -1.2556 H       
  31 H31           -2.9523    -5.1301    -1.2457 H       
  32 H32           -1.6849    -5.9553    -2.1853 H       
  33 H33           -2.2188    -7.1139    -0.0116 H       
  34 H34           -0.5175    -6.5950    -0.1275 H       
  35 H35            0.0599    -4.3214     1.2782 H       
  36 H36           -1.3327    -3.6248     2.1457 H       
  37 H37           -1.5656    -8.3535     1.5265 H       
  38 H38           -2.9096   -10.4036     1.3117 H       
  39 H39           -6.4010    -8.3696     2.2491 H       
  40 H40            2.1951     1.6353     0.0291 H       
  41 H41            2.1796     4.0947     0.0562 H       
  42 H42           -2.0904     4.0798     0.1036 H       
  43 H43           -2.0894     1.6205     0.0697 H       
@<TRIPOS>BOND
   1    1    2 1
   2    1   21 ar
   3    1   25 ar
   4    2    3 1
   5    2    6 2
   6    3    4 2
   7    4    5 1
   8    4    7 1
   9    5    6 1
  10    7    8 1
  11    7   12 1
  12    7   28 1
  13    8    9 1
  14    8   29 1
  15    8   30 1
  16    9   10 1
  17    9   31 1
  18    9   32 1
  19   10   11 1
  20   10   33 1
  21   10   34 1
  22   11   12 1
  23   11   13 am
  24   12   35 1
  25   12   36 1
  26   13   14 1
  27   13   15 2
  28   14   16 ar
  29   14   20 ar
  30   16   17 ar
  31   16   37 1
  32   17   18 ar
  33   17   38 1
  34   18   19 ar
  35   19   20 ar
  36   19   39 1
  37   20   27 1
  38   21   22 ar
  39   21   40 1
  40   22   23 ar
  41   22   41 1
  42   23   24 ar
  43   23   26 1
  44   24   25 ar
  45   24   42 1
  46   25   43 1

#	End of record

