#	Name: ASD01720003
#	Creating user name:	WinNT
#	Creation time:	15. 06. 2019 19:22

#	Modifying user name:	WinNT
#	Modification time:	15. 06. 2019 19:22

#	Program:	/corina/corina34_cracker 3.40 0067  02.08.2006

@<TRIPOS>MOLECULE
ASD01720003
  68   72    0    0    0
SMALL
NO_CHARGES


@<TRIPOS>ATOM
   1 C1             2.2392     4.4116    -0.3044 C.3     
   2 C2             1.3281     3.1894    -0.1727 C.3     
   3 C3             1.7022     2.4080     1.0884 C.3     
   4 C4             3.1589     1.9502     0.9914 C.3     
   5 C5             4.0699     3.1723     0.8597 C.3     
   6 C6             3.6958     3.9537    -0.4014 C.3     
   7 N7             3.5170     1.2019     2.1989 N.am    
   8 C8             4.5126     0.2943     2.1588 C.2     
   9 O9             5.0477     0.0274     1.1036 O.2     
  10 C10            4.9609    -0.3888     3.4251 C.3     
  11 C11            3.8710    -1.3082     3.9127 C.ar    
  12 N12            6.1729    -1.1670     3.1573 N.am    
  13 C13            3.8846    -1.7652     5.2171 C.ar    
  14 C14            2.8847    -2.6087     5.6644 C.ar    
  15 C15            1.8713    -2.9948     4.8075 C.ar    
  16 C16            1.8573    -2.5370     3.5030 C.ar    
  17 C17            2.8545    -1.6902     3.0570 C.ar    
  18 C18            4.9895    -1.3443     6.1514 C.3     
  19 C19            6.1245    -2.2586     2.2832 C.ar    
  20 C20            7.3344    -0.8316     3.7529 C.2     
  21 C21            5.5236    -3.4450     2.6843 C.ar    
  22 C22            6.6718    -2.1558     1.0117 C.ar    
  23 C23            6.6218    -3.2369     0.1498 C.ar    
  24 C24            6.0261    -4.4195     0.5554 C.ar    
  25 C25            5.4764    -4.5212     1.8201 C.ar    
  26 F26            7.1540    -3.1388    -1.0881 F       
  27 O27            7.3956     0.1614     4.4465 O.2     
  28 C28            8.5572    -1.6905     3.5570 C.3     
  29 N29            9.6445    -1.1922     4.4029 N.pl3   
  30 C30           10.6296    -0.3327     4.0268 C.2     
  31 N31           11.4280    -0.1020     5.0279 N.2     
  32 C32           11.0092    -0.7983     6.1157 C.ar    
  33 C33            9.8560    -1.5031     5.7313 C.ar    
  34 C34           11.4829    -0.9171     7.4250 C.ar    
  35 C35           10.8271    -1.7184     8.3160 C.ar    
  36 C36            9.6912    -2.4189     7.9353 C.ar    
  37 C37            9.2019    -2.3116     6.6510 C.ar    
  38 H38            1.9727     4.9682    -1.2028 H       
  39 H39            2.1170     5.0517     0.5693 H       
  40 H40            0.2904     3.5156    -0.1035 H       
  41 H41            1.4504     2.5493    -1.0464 H       
  42 H42            1.5800     3.0482     1.9621 H       
  43 H43            1.0532     1.5374     1.1823 H       
  44 H44            3.2811     1.3100     0.1177 H       
  45 H45            3.9477     3.8124     1.7334 H       
  46 H46            5.1077     2.8461     0.7906 H       
  47 H47            3.8180     3.3136    -1.2751 H       
  48 H48            4.3449     4.8244    -0.4953 H       
  49 H49            3.0377     1.3597     3.0273 H       
  50 H50            5.1717     0.3612     4.1874 H       
  51 H51            2.8957    -2.9664     6.6835 H       
  52 H52            1.0907    -3.6543     5.1567 H       
  53 H53            1.0656    -2.8389     2.8332 H       
  54 H54            2.8435    -1.3326     2.0380 H       
  55 H55            4.6818    -0.4543     6.7003 H       
  56 H56            5.1977    -2.1508     6.8545 H       
  57 H57            5.8881    -1.1234     5.5754 H       
  58 H58            5.0938    -3.5259     3.6717 H       
  59 H59            7.1357    -1.2332     0.6955 H       
  60 H60            5.9871    -5.2624    -0.1187 H       
  61 H61            5.0127    -5.4447     2.1338 H       
  62 H62            8.3259    -2.7198     3.8313 H       
  63 H63            8.8637    -1.6531     2.5117 H       
  64 H64           10.7340     0.0954     3.0407 H       
  65 H65           12.3662    -0.3767     7.7318 H       
  66 H66           11.1965    -1.8078     9.3269 H       
  67 H67            9.1842    -3.0485     8.6515 H       
  68 H68            8.3176    -2.8590     6.3598 H       
@<TRIPOS>BOND
   1    1    2 1
   2    1    6 1
   3    1   38 1
   4    1   39 1
   5    2    3 1
   6    2   40 1
   7    2   41 1
   8    3    4 1
   9    3   42 1
  10    3   43 1
  11    4    5 1
  12    4    7 1
  13    4   44 1
  14    5    6 1
  15    5   45 1
  16    5   46 1
  17    6   47 1
  18    6   48 1
  19    7    8 am
  20    7   49 1
  21    8    9 2
  22    8   10 1
  23   10   11 1
  24   10   12 1
  25   10   50 1
  26   11   13 ar
  27   11   17 ar
  28   12   19 1
  29   12   20 am
  30   13   14 ar
  31   13   18 1
  32   14   15 ar
  33   14   51 1
  34   15   16 ar
  35   15   52 1
  36   16   17 ar
  37   16   53 1
  38   17   54 1
  39   18   55 1
  40   18   56 1
  41   18   57 1
  42   19   21 ar
  43   19   22 ar
  44   20   27 2
  45   20   28 1
  46   21   25 ar
  47   21   58 1
  48   22   23 ar
  49   22   59 1
  50   23   24 ar
  51   23   26 1
  52   24   25 ar
  53   24   60 1
  54   25   61 1
  55   28   29 1
  56   28   62 1
  57   28   63 1
  58   29   30 1
  59   29   33 1
  60   30   31 2
  61   30   64 1
  62   31   32 1
  63   32   33 ar
  64   32   34 ar
  65   33   37 ar
  66   34   35 ar
  67   34   65 1
  68   35   36 ar
  69   35   66 1
  70   36   37 ar
  71   36   67 1
  72   37   68 1

#	End of record

