#	Name: ASD03320243
#	Creating user name:	WinNT
#	Creation time:	15. 06. 2019 20:36

#	Modifying user name:	WinNT
#	Modification time:	15. 06. 2019 20:36

#	Program:	/corina/corina34_cracker 3.40 0067  02.08.2006

@<TRIPOS>MOLECULE
ASD03320243
  52   55    0    0    0
SMALL
NO_CHARGES


@<TRIPOS>ATOM
   1 Cl1            3.0925     2.5110    -2.5457 Cl      
   2 Cl2           -1.0421     3.7353     0.7091 Cl      
   3 F3             2.3834     5.0591    -3.8492 F       
   4 O4            -0.0164     1.3559     0.0095 O.3     
   5 N5             3.9000    -4.4591     0.7573 N.pl3   
   6 N6             4.2353    -8.4798     1.9711 N.3     
   7 N7             4.6188    -3.2718     0.5724 N.2     
   8 N8            -1.1566    -2.0215     0.5156 N.ar    
   9 N9            -2.3971    -0.0448     0.2596 N.pl3   
  10 C10            4.4772    -5.7930     0.9409 C.3     
  11 C11            4.5886    -6.1010     2.4367 C.3     
  12 C12            3.5737    -6.8370     0.2788 C.3     
  13 C13            4.1495    -8.2332     0.5261 C.3     
  14 C14            5.1350    -7.5185     2.6214 C.3     
  15 C15            2.5843    -4.1615     0.7431 C.2     
  16 C16            2.4677    -2.8158     0.5534 C.2     
  17 C17            3.7686    -2.2874     0.4452 C.2     
  18 C18            1.1991    -2.0480     0.4706 C.ar    
  19 C19            1.2206    -0.6636     0.2726 C.ar    
  20 C20           -0.0257    -2.6963     0.5885 C.ar    
  21 C21            0.0121     0.0097     0.2015 C.ar    
  22 C22            1.2346     2.0036    -0.2304 C.3     
  23 C23           -1.1763    -0.7118     0.3291 C.ar    
  24 C24            1.0016     3.2751    -1.0050 C.ar    
  25 C25            1.9015     2.3356     1.1060 C.3     
  26 C26            1.8095     3.5855    -2.0839 C.ar    
  27 C27           -0.0238     4.1289    -0.6406 C.ar    
  28 C28            1.5947     4.7546    -2.7955 C.ar    
  29 C29           -0.2387     5.2963    -1.3517 C.ar    
  30 C30            0.5715     5.6109    -2.4260 C.ar    
  31 H31            5.4677    -5.8269     0.4873 H       
  32 H32            2.5727    -6.7753     0.7058 H       
  33 H33            3.5247    -6.6483    -0.7936 H       
  34 H34            5.2647    -5.3863     2.9060 H       
  35 H35            3.6036    -6.0277     2.8976 H       
  36 H36            5.1449    -8.2986     0.0868 H       
  37 H37            3.5009    -8.9799     0.0681 H       
  38 H38            5.2020    -7.7461     3.6852 H       
  39 H39            6.1258    -7.5872     2.1723 H       
  40 H40            3.3202    -8.4630     2.3958 H       
  41 H41            1.7707    -4.8620     0.8600 H       
  42 H42            4.0201    -1.2486     0.2902 H       
  43 H43            2.1562    -0.1326     0.1778 H       
  44 H44           -0.0510    -3.7650     0.7419 H       
  45 H45            1.8823     1.3415    -0.8051 H       
  46 H46            1.2539     2.9977     1.6807 H       
  47 H47            2.0701     1.4159     1.6663 H       
  48 H48            2.8558     2.8296     0.9231 H       
  49 H49           -1.0398     5.9622    -1.0666 H       
  50 H50           -3.2263    -0.5404     0.3478 H       
  51 H51           -2.4182     0.9153     0.1230 H       
  52 H52            0.4035     6.5225    -2.9804 H       
@<TRIPOS>BOND
   1    1   26 1
   2    2   27 1
   3    3   28 1
   4    4   21 1
   5    4   22 1
   6    5    7 1
   7    5   10 1
   8    5   15 1
   9    6   13 1
  10    6   14 1
  11    6   40 1
  12    7   17 2
  13    8   20 ar
  14    8   23 ar
  15    9   23 1
  16    9   50 1
  17    9   51 1
  18   10   11 1
  19   10   12 1
  20   10   31 1
  21   11   14 1
  22   11   34 1
  23   11   35 1
  24   12   13 1
  25   12   32 1
  26   12   33 1
  27   13   36 1
  28   13   37 1
  29   14   38 1
  30   14   39 1
  31   15   16 2
  32   15   41 1
  33   16   17 1
  34   16   18 1
  35   17   42 1
  36   18   19 ar
  37   18   20 ar
  38   19   21 ar
  39   19   43 1
  40   20   44 1
  41   21   23 ar
  42   22   24 1
  43   22   25 1
  44   22   45 1
  45   24   26 ar
  46   24   27 ar
  47   25   46 1
  48   25   47 1
  49   25   48 1
  50   26   28 ar
  51   27   29 ar
  52   28   30 ar
  53   29   30 ar
  54   29   49 1
  55   30   52 1

#	End of record

