#	Name: ASD01120018
#	Creating user name:	WinNT
#	Creation time:	15. 06. 2019 18:58

#	Modifying user name:	WinNT
#	Modification time:	15. 06. 2019 18:58

#	Program:	/corina/corina34_cracker 3.40 0067  02.08.2006

@<TRIPOS>MOLECULE
ASD01120018
  56   59    0    0    0
SMALL
NO_CHARGES


@<TRIPOS>ATOM
   1 C1            -0.0157     1.4014    -0.0362 C.ar    
   2 C2             0.0044    -0.0001    -0.0571 C.ar    
   3 C3            -1.1694    -0.7207    -0.0474 C.ar    
   4 C4            -2.3944    -0.0434    -0.0163 C.ar    
   5 C5            -2.4068     1.3734     0.0047 C.ar    
   6 C6            -1.1996     2.0821    -0.0005 C.ar    
   7 N7            -3.5659    -0.6987    -0.0061 N.ar    
   8 C8            -4.6979    -0.0366     0.0227 C.ar    
   9 N9            -4.7583     1.2854     0.0427 N.ar    
  10 C10           -3.6603     2.0297     0.0355 C.ar    
  11 N11           -3.7382     3.4079     0.0570 N.pl3   
  12 C12           -4.9822     4.0392    -0.0337 C.ar    
  13 C13           -5.9879     3.4819    -0.8088 C.ar    
  14 C14           -7.2257     4.1146    -0.8960 C.ar    
  15 C15           -7.4464     5.3044    -0.2037 C.ar    
  16 C16           -6.4396     5.8530     0.5656 C.ar    
  17 C17           -5.2133     5.2228     0.6578 C.ar    
  18 C18           -8.3058     3.5245    -1.7236 C.2     
  19 O19            1.1563     2.0909    -0.0459 O.3     
  20 O20            1.1944    -0.6546    -0.0876 O.3     
  21 C21           -9.5164     4.0962    -1.8400 C.2     
  22 S22          -10.5024     3.0930    -2.9010 S.3     
  23 C23           -9.1594     1.9706    -3.0930 C.2     
  24 N24           -8.1421     2.3933    -2.4083 N.2     
  25 C25            1.0702     3.5171    -0.0235 C.3     
  26 C26            2.4791     4.1135    -0.0386 C.3     
  27 C27            1.1490    -2.0827    -0.1077 C.3     
  28 C28            2.5743    -2.6379    -0.1410 C.3     
  29 N29           -9.1835     0.8178    -3.8611 N.pl3   
  30 C30           -7.9954    -0.0357    -3.9387 C.3     
  31 C31          -10.3972     0.4525    -4.5958 C.3     
  32 H32           -1.1450    -1.8003    -0.0639 H       
  33 H33           -1.2042     3.1620     0.0154 H       
  34 H34           -5.6222    -0.5954     0.0301 H       
  35 H35           -2.9298     3.9382     0.1351 H       
  36 H36           -5.8118     2.5602    -1.3435 H       
  37 H37           -8.4051     5.7973    -0.2694 H       
  38 H38           -6.6126     6.7751     1.1006 H       
  39 H39           -4.4293     5.6560     1.2612 H       
  40 H40           -9.8311     5.0134    -1.3646 H       
  41 H41            0.5204     3.8617    -0.8994 H       
  42 H42            0.5505     3.8356     0.8801 H       
  43 H43            3.0288     3.7689     0.8373 H       
  44 H44            2.9988     3.7950    -0.9422 H       
  45 H45            2.4134     5.2014    -0.0215 H       
  46 H46            0.6396    -2.4427     0.7862 H       
  47 H47            0.6083    -2.4166    -0.9933 H       
  48 H48            3.0837    -2.2780    -1.0349 H       
  49 H49            3.1151    -2.3040     0.7446 H       
  50 H50            2.5397    -3.7272    -0.1563 H       
  51 H51           -8.0318    -0.7821    -3.1451 H       
  52 H52           -7.9698    -0.5358    -4.9069 H       
  53 H53           -7.1006     0.5756    -3.8217 H       
  54 H54          -11.1690     1.2012    -4.4177 H       
  55 H55          -10.1760     0.4052    -5.6621 H       
  56 H56          -10.7495    -0.5209    -4.2544 H       
@<TRIPOS>BOND
   1    1    2 ar
   2    1   19 1
   3    1    6 ar
   4    2    3 ar
   5    2   20 1
   6    3    4 ar
   7    3   32 1
   8    4    5 ar
   9    4    7 ar
  10    5    6 ar
  11    5   10 ar
  12    6   33 1
  13    7    8 ar
  14    8    9 ar
  15    8   34 1
  16    9   10 ar
  17   10   11 1
  18   11   12 1
  19   11   35 1
  20   12   13 ar
  21   12   17 ar
  22   13   14 ar
  23   13   36 1
  24   14   15 ar
  25   14   18 1
  26   15   16 ar
  27   15   37 1
  28   16   17 ar
  29   16   38 1
  30   17   39 1
  31   18   21 2
  32   18   24 1
  33   19   25 1
  34   20   27 1
  35   21   22 1
  36   21   40 1
  37   22   23 1
  38   23   24 2
  39   23   29 1
  40   25   26 1
  41   25   41 1
  42   25   42 1
  43   26   43 1
  44   26   44 1
  45   26   45 1
  46   27   28 1
  47   27   46 1
  48   27   47 1
  49   28   48 1
  50   28   49 1
  51   28   50 1
  52   29   30 1
  53   29   31 1
  54   30   51 1
  55   30   52 1
  56   30   53 1
  57   31   54 1
  58   31   55 1
  59   31   56 1

#	End of record

