#	Name: ASD04882051
#	Creating user name:	WinNT
#	Creation time:	15. 06. 2019 20:54

#	Modifying user name:	WinNT
#	Modification time:	15. 06. 2019 20:54

#	Program:	/corina/corina34_cracker 3.40 0067  02.08.2006

@<TRIPOS>MOLECULE
ASD04882051
  75   79    0    0    0
SMALL
NO_CHARGES


@<TRIPOS>ATOM
   1 O1             1.4915    -0.1668     2.6496 O.3     
   2 C2             0.9770    -1.2358     2.0200 C.2     
   3 S3            -0.2896    -1.1998     0.7957 S.o2    
   4 O4            -0.2584     0.1008     0.2241 O.2     
   5 O5            -0.1425    -2.3885     0.0311 O.2     
   6 N6            -1.7391    -1.3286     1.5861 N.am    
   7 C7            -2.1297    -0.3401     2.4979 C.ar    
   8 C8            -1.8796    -0.5093     3.8625 C.ar    
   9 C9            -2.2666     0.4707     4.7687 C.ar    
  10 C10           -2.8977     1.6123     4.3258 C.ar    
  11 C11           -3.1504     1.7882     2.9627 C.ar    
  12 C12           -2.7574     0.8061     2.0486 C.ar    
  13 N13           -1.2419    -1.6627     4.3152 N.3     
  14 C14           -2.0847    -2.8479     4.1041 C.3     
  15 C15           -0.8630    -1.5345     5.7293 C.3     
  16 C16           -0.0972    -2.7859     6.1649 C.3     
  17 N17           -0.9400    -3.9711     5.9538 N.3     
  18 C18           -1.3188    -4.0993     4.5397 C.3     
  19 C19           -0.3007    -5.1271     6.4075 C.ar    
  20 C20            0.9172    -5.5094     5.8602 C.ar    
  21 C21           -0.8790    -5.8941     7.4113 C.ar    
  22 C22           -0.2444    -7.0364     7.8575 C.ar    
  23 C23            0.9658    -7.4171     7.3066 C.ar    
  24 C24            1.5467    -6.6532     6.3112 C.ar    
  25 C25           -2.1971    -5.4796     8.0128 C.3     
  26 C26           -3.8268     3.0105     2.4885 C.2     
  27 N27           -4.2016     3.9585     3.3702 N.am    
  28 O28           -4.0463     3.1627     1.3023 O.2     
  29 C29           -4.8733     5.1723     2.8993 C.3     
  30 C30           -5.1884     6.0765     4.0927 C.3     
  31 C31           -5.8899     7.3441     3.6009 C.3     
  32 N32           -6.1916     8.2098     4.7436 N.am    
  33 C33           -5.2875     9.2439     5.2606 C.3     
  34 C34           -5.8079     9.5759     6.6767 C.3     
  35 C35           -7.3000     9.1861     6.5636 C.3     
  36 C36           -7.3344     8.1630     5.4497 C.2     
  37 O37           -8.2560     7.4058     5.2302 O.2     
  38 C38            1.5931    -2.3385     2.4824 C.2     
  39 C39            2.5335    -1.9086     3.4466 C.2     
  40 C40            2.4358    -0.5688     3.5158 C.2     
  41 H41           -2.3177    -2.0887     1.4174 H       
  42 H42           -2.0723     0.3369     5.8226 H       
  43 H43           -3.1978     2.3717     5.0326 H       
  44 H44           -2.9513     0.9391     0.9945 H       
  45 H45           -2.9964    -2.7556     4.6944 H       
  46 H46           -2.3415    -2.9280     3.0478 H       
  47 H47           -0.2292    -0.6571     5.8578 H       
  48 H48           -1.7608    -1.4273     6.3380 H       
  49 H49            0.8145    -2.8782     5.5746 H       
  50 H50            0.1597    -2.7058     7.2212 H       
  51 H51           -1.9527    -4.9767     4.4112 H       
  52 H52           -0.4210    -4.2065     3.9310 H       
  53 H53            1.3715    -4.9132     5.0827 H       
  54 H54           -0.6933    -7.6331     8.6377 H       
  55 H55            1.4605    -8.3106     7.6579 H       
  56 H56            2.4917    -6.9533     5.8832 H       
  57 H57           -3.0124    -5.9327     7.4487 H       
  58 H58           -2.2440    -5.8123     9.0497 H       
  59 H59           -2.2884    -4.3941     7.9750 H       
  60 H60           -4.0265     3.8371     4.3165 H       
  61 H61           -4.2216     5.7019     2.2044 H       
  62 H62           -5.8002     4.9017     2.3937 H       
  63 H63           -5.8400     5.5469     4.7876 H       
  64 H64           -4.2614     6.3470     4.5983 H       
  65 H65           -5.2382     7.8737     2.9059 H       
  66 H66           -6.8168     7.0735     3.0953 H       
  67 H67           -4.2681     8.8616     5.3134 H       
  68 H68           -5.3264    10.1300     4.6270 H       
  69 H69           -5.3027     8.9710     7.4297 H       
  70 H70           -5.6976    10.6384     6.8936 H       
  71 H71           -7.6518     8.7488     7.4980 H       
  72 H72           -7.9021    10.0548     6.2973 H       
  73 H73            1.4051    -3.3570     2.1762 H       
  74 H74            3.2017    -2.5356     4.0182 H       
  75 H75            3.0179     0.0746     4.1590 H       
@<TRIPOS>BOND
   1    1    2 1
   2    1   40 1
   3    2    3 1
   4    2   38 2
   5    3    4 2
   6    3    5 2
   7    3    6 am
   8    6    7 1
   9    6   41 1
  10    7    8 ar
  11    7   12 ar
  12    8    9 ar
  13    8   13 1
  14    9   10 ar
  15    9   42 1
  16   10   11 ar
  17   10   43 1
  18   11   12 ar
  19   11   26 1
  20   12   44 1
  21   13   14 1
  22   13   15 1
  23   14   18 1
  24   14   45 1
  25   14   46 1
  26   15   16 1
  27   15   47 1
  28   15   48 1
  29   16   17 1
  30   16   49 1
  31   16   50 1
  32   17   18 1
  33   17   19 1
  34   18   51 1
  35   18   52 1
  36   19   20 ar
  37   19   21 ar
  38   20   24 ar
  39   20   53 1
  40   21   22 ar
  41   21   25 1
  42   22   23 ar
  43   22   54 1
  44   23   24 ar
  45   23   55 1
  46   24   56 1
  47   25   57 1
  48   25   58 1
  49   25   59 1
  50   26   27 am
  51   26   28 2
  52   27   29 1
  53   27   60 1
  54   29   30 1
  55   29   61 1
  56   29   62 1
  57   30   31 1
  58   30   63 1
  59   30   64 1
  60   31   32 1
  61   31   65 1
  62   31   66 1
  63   32   33 1
  64   32   36 am
  65   33   34 1
  66   33   67 1
  67   33   68 1
  68   34   35 1
  69   34   69 1
  70   34   70 1
  71   35   36 1
  72   35   71 1
  73   35   72 1
  74   36   37 2
  75   38   39 1
  76   38   73 1
  77   39   40 2
  78   39   74 1
  79   40   75 1

#	End of record

