#	Name: ASD02198793
#	Creating user name:	WinNT
#	Creation time:	15. 06. 2019 20:20

#	Modifying user name:	WinNT
#	Modification time:	15. 06. 2019 20:20

#	Program:	/corina/corina34_cracker 3.40 0067  02.08.2006

@<TRIPOS>MOLECULE
ASD02198793
  46   50    0    0    0
SMALL
NO_CHARGES


@<TRIPOS>ATOM
   1 F1             2.2538    -1.7088     2.4705 F       
   2 C2            -0.0432     1.5015    -0.1151 C.2     
   3 C3            -0.0730     0.1620     0.0973 C.2     
   4 N4             1.0717    -0.5399     0.2597 N.pl3   
   5 N5             2.2362    -0.0051     0.2261 N.2     
   6 C6             2.4078     1.2840     0.0280 C.2     
   7 C7             1.2219     2.1355    -0.1606 C.2     
   8 C8             0.9803    -1.9175     0.4756 C.ar    
   9 C9             1.5816    -2.4875     1.5946 C.ar    
  10 C10            1.4915    -3.8482     1.8089 C.ar    
  11 C11            0.7977    -4.6505     0.9036 C.ar    
  12 C12            0.1965    -4.0761    -0.2164 C.ar    
  13 C13            0.2841    -2.7165    -0.4243 C.ar    
  14 C14            3.7648     1.8662    -0.0042 C.2     
  15 N15            4.3071     2.6063    -1.0170 N.pl3   
  16 N16            5.6089     2.9578    -0.6388 N.2     
  17 C17            5.8523     2.4581     0.5466 C.2     
  18 C18            4.7203     1.7704     0.9838 C.2     
  19 C19            3.6746     2.9508    -2.2184 C.ar    
  20 C20            3.8084     4.2339    -2.7321 C.ar    
  21 C21            3.1835     4.5705    -3.9168 C.ar    
  22 C22            2.4251     3.6313    -4.5913 C.ar    
  23 C23            2.2895     2.3528    -4.0821 C.ar    
  24 C24            2.9170     2.0082    -2.9010 C.ar    
  25 O25            1.3249     3.3385    -0.3480 O.2     
  26 C26            0.6997    -6.1119     1.1309 C.ar    
  27 N27            1.2703    -6.6713     2.1967 N.ar    
  28 C28            0.0022    -6.9253     0.2336 C.ar    
  29 C29           -0.0596    -8.2831     0.4913 C.ar    
  30 N30            0.5390    -8.7636     1.5704 N.ar    
  31 C31            1.1848    -7.9690     2.4009 C.ar    
  32 H32           -0.9546     2.0652    -0.2497 H       
  33 H33           -1.0228    -0.3505     0.1376 H       
  34 H34            1.9580    -4.2910     2.6765 H       
  35 H35           -0.3411    -4.6962    -0.9184 H       
  36 H36           -0.1819    -2.2724    -1.2914 H       
  37 H37            6.7756     2.5644     1.0967 H       
  38 H38            4.6142     1.2507     1.9245 H       
  39 H39            4.4003     4.9680    -2.2056 H       
  40 H40            3.2869     5.5684    -4.3167 H       
  41 H41            1.9374     3.8970    -5.5176 H       
  42 H42            1.6960     1.6217    -4.6109 H       
  43 H43            2.8108     1.0095    -2.5038 H       
  44 H44           -0.4765    -6.5046    -0.6384 H       
  45 H45           -0.5898    -8.9431    -0.1792 H       
  46 H46            1.6613    -8.3955     3.2712 H       
@<TRIPOS>BOND
   1    1    9 1
   2    2    3 2
   3    2    7 1
   4    2   32 1
   5    3    4 1
   6    3   33 1
   7    4    5 1
   8    4    8 1
   9    5    6 2
  10    6    7 1
  11    6   14 1
  12    7   25 2
  13    8    9 ar
  14    8   13 ar
  15    9   10 ar
  16   10   11 ar
  17   10   34 1
  18   11   12 ar
  19   11   26 1
  20   12   13 ar
  21   12   35 1
  22   13   36 1
  23   14   15 1
  24   14   18 2
  25   15   16 1
  26   15   19 1
  27   16   17 2
  28   17   18 1
  29   17   37 1
  30   18   38 1
  31   19   20 ar
  32   19   24 ar
  33   20   21 ar
  34   20   39 1
  35   21   22 ar
  36   21   40 1
  37   22   23 ar
  38   22   41 1
  39   23   24 ar
  40   23   42 1
  41   24   43 1
  42   26   27 ar
  43   26   28 ar
  44   27   31 ar
  45   28   29 ar
  46   28   44 1
  47   29   30 ar
  48   29   45 1
  49   30   31 ar
  50   31   46 1

#	End of record

