#	Name: ASD01120022
#	Creating user name:	WinNT
#	Creation time:	15. 06. 2019 18:58

#	Modifying user name:	WinNT
#	Modification time:	15. 06. 2019 18:58

#	Program:	/corina/corina34_cracker 3.40 0067  02.08.2006

@<TRIPOS>MOLECULE
ASD01120022
  51   54    0    0    0
SMALL
NO_CHARGES


@<TRIPOS>ATOM
   1 C1            -0.0907     1.3501     0.6498 C.ar    
   2 C2            -0.0525    -0.0391     0.4659 C.ar    
   3 C3            -1.1845    -0.7311     0.0961 C.ar    
   4 C4            -2.3851    -0.0371    -0.0970 C.ar    
   5 C5            -2.4161     1.3670     0.0912 C.ar    
   6 C6            -1.2527     2.0460     0.4722 C.ar    
   7 N7            -3.5156    -0.6644    -0.4579 N.ar    
   8 C8            -4.6254     0.0128    -0.6318 C.ar    
   9 N9            -4.7018     1.3239    -0.4679 N.ar    
  10 C10           -3.6439     2.0408    -0.1117 C.ar    
  11 N11           -3.7382     3.4079     0.0561 N.pl3   
  12 C12           -4.9822     4.0392    -0.0351 C.ar    
  13 C13           -6.1284     3.3761     0.3767 C.ar    
  14 C14           -7.3652     4.0090     0.2839 C.ar    
  15 C15           -7.4444     5.3051    -0.2222 C.ar    
  16 C16           -6.2985     5.9586    -0.6307 C.ar    
  17 C17           -5.0700     5.3340    -0.5334 C.ar    
  18 C18           -8.5958     3.3051     0.7224 C.2     
  19 O19            1.0401     2.0114     1.0145 O.3     
  20 O20            1.1137    -0.7099     0.6540 O.3     
  21 C21           -9.8316     3.8792     0.6529 C.2     
  22 S22          -10.9930     2.7707     1.2427 S.3     
  23 C23           -9.7289     1.5856     1.5515 C.2     
  24 N24           -8.5756     2.0816     1.2007 N.2     
  25 C25            0.9373     3.4263     1.1864 C.3     
  26 C26            2.2998     3.9909     1.5936 C.3     
  27 C27            1.0886    -2.1242     0.4513 C.3     
  28 C28            2.4824    -2.7010     0.7073 C.3     
  29 C29           -9.9414     0.2423     2.1130 C.2     
  30 O30          -11.1859    -0.1649     2.4342 O.3     
  31 O31           -8.9952    -0.5003     2.2872 O.2     
  32 H32           -1.1462    -1.8013    -0.0442 H       
  33 H33           -1.2717     3.1161     0.6167 H       
  34 H34           -5.5168    -0.5235    -0.9222 H       
  35 H35           -2.9413     3.9304     0.2372 H       
  36 H36           -6.0621     2.3717     0.7680 H       
  37 H37           -8.4023     5.7984    -0.2953 H       
  38 H38           -6.3624     6.9627    -1.0233 H       
  39 H39           -4.1767     5.8495    -0.8538 H       
  40 H40          -10.0422     4.8726     0.2853 H       
  41 H41            0.6196     3.8840     0.2496 H       
  42 H42            0.2060     3.6456     1.9644 H       
  43 H43            2.6175     3.5332     2.5304 H       
  44 H44            3.0312     3.7716     0.8157 H       
  45 H45            2.2214     5.0701     1.7247 H       
  46 H46            0.3757    -2.5774     1.1401 H       
  47 H47            0.7893    -2.3390    -0.5746 H       
  48 H48            3.1953    -2.2479     0.0185 H       
  49 H49            2.7816    -2.4863     1.7332 H       
  50 H50            2.4632    -3.7798     0.5527 H       
  51 H51          -11.2757    -1.0555     2.7999 H       
@<TRIPOS>BOND
   1    1    2 ar
   2    1   19 1
   3    1    6 ar
   4    2    3 ar
   5    2   20 1
   6    3    4 ar
   7    3   32 1
   8    4    5 ar
   9    4    7 ar
  10    5    6 ar
  11    5   10 ar
  12    6   33 1
  13    7    8 ar
  14    8    9 ar
  15    8   34 1
  16    9   10 ar
  17   10   11 1
  18   11   12 1
  19   11   35 1
  20   12   13 ar
  21   12   17 ar
  22   13   14 ar
  23   13   36 1
  24   14   15 ar
  25   14   18 1
  26   15   16 ar
  27   15   37 1
  28   16   17 ar
  29   16   38 1
  30   17   39 1
  31   18   21 2
  32   18   24 1
  33   19   25 1
  34   20   27 1
  35   21   22 1
  36   21   40 1
  37   22   23 1
  38   23   24 2
  39   23   29 1
  40   25   26 1
  41   25   41 1
  42   25   42 1
  43   26   43 1
  44   26   44 1
  45   26   45 1
  46   27   28 1
  47   27   46 1
  48   27   47 1
  49   28   48 1
  50   28   49 1
  51   28   50 1
  52   29   30 1
  53   29   31 2
  54   30   51 1

#	End of record

