#	Name: ASD01914208
#	Creating user name:	WinNT
#	Creation time:	15. 06. 2019 20:03

#	Modifying user name:	WinNT
#	Modification time:	15. 06. 2019 20:03

#	Program:	/corina/corina34_cracker 3.40 0067  02.08.2006

@<TRIPOS>MOLECULE
ASD01914208
  39   40    0    0    0
SMALL
NO_CHARGES


@<TRIPOS>ATOM
   1 O1            -0.0143     1.2050     0.0087 O.3     
   2 N2             0.0021    -0.0041     0.0020 N.2     
   3 C3             1.2187    -0.4669    -0.0121 C.2     
   4 C4             2.0739     0.6590    -0.0142 C.2     
   5 C5             1.2254     1.7147    -0.0004 C.2     
   6 S6             3.8357     0.6831    -0.0300 S.o2    
   7 O7             4.2247     1.9355     0.5172 O.2     
   8 O8             4.2589    -0.5637     0.5044 O.2     
   9 N9             4.3115     0.6978    -1.6162 N.am    
  10 C10            4.5046     1.9728    -2.3112 C.3     
  11 C11            5.9802     2.3715    -2.2448 C.3     
  12 C12            6.1743     3.6527    -2.9432 C.1     
  13 C13            6.3290     4.6745    -3.5002 C.1     
  14 C14            6.5178     5.9208    -4.1797 C.ar    
  15 C15            7.7919     6.4855    -4.2491 C.ar    
  16 C16            7.9579     7.6900    -4.9091 C.ar    
  17 C17            6.8448     8.2926    -5.4790 C.ar    
  18 C18            5.6109     7.6778    -5.3726 C.ar    
  19 N19            5.4798     6.5277    -4.7435 N.ar    
  20 C20            1.6010     3.1741     0.0031 C.3     
  21 C21            1.6334    -1.9156    -0.0234 C.3     
  22 C22            4.5393    -0.5643    -2.3242 C.3     
  23 H23            4.2032     1.8678    -3.3535 H       
  24 H24            3.8984     2.7425    -1.8335 H       
  25 H25            6.2816     2.4766    -1.2026 H       
  26 H26            6.5864     1.6018    -2.7225 H       
  27 H27            8.6364     5.9894    -3.7939 H       
  28 H28            8.9318     8.1515    -4.9790 H       
  29 H29            6.9416     9.2333    -6.0006 H       
  30 H30            4.7433     8.1447    -5.8149 H       
  31 H31            0.6963     3.7820     0.0149 H       
  32 H32            2.1978     3.3936     0.8884 H       
  33 H33            2.1805     3.4023    -0.8915 H       
  34 H34            1.7239    -2.2596    -1.0537 H       
  35 H35            2.5937    -2.0226     0.4810 H       
  36 H36            0.8826    -2.5125     0.4944 H       
  37 H37            3.6116    -0.8893    -2.7952 H       
  38 H38            5.3033    -0.4196    -3.0881 H       
  39 H39            4.8725    -1.3231    -1.6162 H       
@<TRIPOS>BOND
   1    1    2 1
   2    1    5 1
   3    2    3 2
   4    3    4 1
   5    3   21 1
   6    4    5 2
   7    4    6 1
   8    5   20 1
   9    6    7 2
  10    6    8 2
  11    6    9 am
  12    9   10 1
  13    9   22 1
  14   10   11 1
  15   10   23 1
  16   10   24 1
  17   11   12 1
  18   11   25 1
  19   11   26 1
  20   12   13 3
  21   13   14 1
  22   14   15 ar
  23   14   19 ar
  24   15   16 ar
  25   15   27 1
  26   16   17 ar
  27   16   28 1
  28   17   18 ar
  29   17   29 1
  30   18   19 ar
  31   18   30 1
  32   20   31 1
  33   20   32 1
  34   20   33 1
  35   21   34 1
  36   21   35 1
  37   21   36 1
  38   22   37 1
  39   22   38 1
  40   22   39 1

#	End of record

