#	Name: ASD01230100
#	Creating user name:	WinNT
#	Creation time:	15. 06. 2019 19:11

#	Modifying user name:	WinNT
#	Modification time:	15. 06. 2019 19:11

#	Program:	/corina/corina34_cracker 3.40 0067  02.08.2006

@<TRIPOS>MOLECULE
ASD01230100
  22   24    0    0    0
SMALL
NO_CHARGES


@<TRIPOS>ATOM
   1 N1            -0.0168     1.3868     0.0097 N.am    
   2 C2             0.0021    -0.0041     0.0020 C.2     
   3 N3            -1.1551    -0.7346     0.0096 N.pl3   
   4 C4            -2.3933    -0.0956     0.0259 C.ar    
   5 C5            -2.4458     1.3063     0.0347 C.ar    
   6 C6            -1.1820     2.0652     0.0300 C.2     
   7 C7            -3.5722    -0.8264     0.0332 C.ar    
   8 C8            -4.7870    -0.1704     0.0490 C.ar    
   9 C9            -4.8405     1.2146     0.0572 C.ar    
  10 C10           -3.6787     1.9571     0.0506 C.ar    
  11 C11            1.0467    -0.8752    -0.0138 C.2     
  12 C12            0.5128    -2.1773    -0.0159 C.2     
  13 C13           -0.8301    -2.0676    -0.0015 C.2     
  14 *14            1.3283    -3.5072    -0.0320 Du      
  15 *15            1.2785     2.1433     0.0014 Du      
  16 O16           -1.1902     3.2817     0.0374 O.2     
  17 *17           -6.1110    -0.9954     0.0571 Du      
  18 H18           -3.5399    -1.9059     0.0261 H       
  19 H19           -5.7976     1.7150     0.0689 H       
  20 H20           -3.7234     3.0362     0.0574 H       
  21 H21            2.0948    -0.6150    -0.0236 H       
  22 H22           -1.5313    -2.8890     0.0006 H       
@<TRIPOS>BOND
   1    1    2 1
   2    1   15 1
   3    1    6 am
   4    2    3 1
   5    2   11 2
   6    3    4 1
   7    3   13 1
   8    4    5 ar
   9    4    7 ar
  10    5    6 1
  11    5   10 ar
  12    6   16 2
  13    7    8 ar
  14    7   18 1
  15    8    9 ar
  16    8   17 1
  17    9   10 ar
  18    9   19 1
  19   10   20 1
  20   11   12 1
  21   11   21 1
  22   12   13 2
  23   12   14 1
  24   13   22 1

#	End of record

