#	Name: ASD02030505
#	Creating user name:	WinNT
#	Creation time:	15. 06. 2019 20:15

#	Modifying user name:	WinNT
#	Modification time:	15. 06. 2019 20:15

#	Program:	/corina/corina34_cracker 3.40 0067  02.08.2006

@<TRIPOS>MOLECULE
ASD02030505
  62   66    0    0    0
SMALL
NO_CHARGES


@<TRIPOS>ATOM
   1 N1            -0.2796     1.1916     0.4251 N.am    
   2 C2            -0.6254    -0.2365     0.3967 C.3     
   3 C3            -1.7593    -0.4862     1.3987 C.3     
   4 N4            -2.8196     0.5040     1.1643 N.am    
   5 C5            -2.4739     1.9322     1.1927 C.3     
   6 C6            -1.3410     2.1820     0.1963 C.3     
   7 C7             0.9871     1.5861     0.6623 C.2     
   8 C8             2.0166     0.5886     1.0234 C.2     
   9 N9             3.2517     0.8505     1.3933 N.2     
  10 N10            1.8539    -0.7472     1.0373 N.2     
  11 C11            2.9925    -1.2739     1.4100 C.2     
  12 N12            3.8572    -0.2622     1.6293 N.pl3   
  13 O13            1.2831     2.7623     0.5793 O.2     
  14 C14           -4.0864     0.1095     0.9272 C.2     
  15 C15           -4.3980    -1.3214     0.7932 C.2     
  16 O16           -4.9719     0.9371     0.8239 O.2     
  17 C17           -0.7819     3.5919     0.3974 C.3     
  18 C18           -1.8712     2.0350    -1.2314 C.3     
  19 C19            5.1893    -0.3982     2.0428 C.ar    
  20 C20            5.9766     0.7288     2.2332 C.ar    
  21 C21            7.2914     0.5910     2.6415 C.ar    
  22 C22            7.8204    -0.6701     2.8597 C.ar    
  23 C23            7.0367    -1.7934     2.6702 C.ar    
  24 C24            5.7221    -1.6608     2.2683 C.ar    
  25 F25            8.0594     1.6869     2.8269 F       
  26 C26           -4.3957    -2.0224    -0.3706 C.2     
  27 C27           -4.7468    -3.3604    -0.0686 C.ar    
  28 C28           -4.9578    -3.4258     1.3225 C.ar    
  29 N29           -4.7339    -2.1685     1.8315 N.pl3   
  30 C30           -4.9023    -4.5139    -0.8485 C.ar    
  31 C31           -5.2564    -5.6909    -0.2563 C.ar    
  32 C32           -5.4656    -5.7579     1.1156 C.ar    
  33 C33           -5.3186    -4.6385     1.9035 C.ar    
  34 C34           -4.0772    -1.4741    -1.7377 C.3     
  35 C35           -4.8427    -1.7875     3.2419 C.3     
  36 H36           -0.9546    -0.5133    -0.6049 H       
  37 H37            0.2459    -0.8294     0.6749 H       
  38 H38           -2.1586    -1.4904     1.2564 H       
  39 H39           -1.3791    -0.3816     2.4149 H       
  40 H40           -3.3452     2.5251     0.9145 H       
  41 H41           -2.1446     2.2090     2.1943 H       
  42 H42            3.2011    -2.3274     1.5240 H       
  43 H43           -0.2986     3.6554     1.3723 H       
  44 H44           -0.0536     3.8089    -0.3840 H       
  45 H45           -1.5952     4.3159     0.3472 H       
  46 H46           -2.6678     2.7597    -1.3996 H       
  47 H47           -1.0621     2.2135    -1.9396 H       
  48 H48           -2.2614     1.0270    -1.3720 H       
  49 H49            5.5636     1.7121     2.0626 H       
  50 H50            8.8470    -0.7764     3.1780 H       
  51 H51            7.4519    -2.7756     2.8411 H       
  52 H52            5.1112    -2.5391     2.1207 H       
  53 H53           -4.7425    -4.4714    -1.9158 H       
  54 H54           -5.3756    -6.5787    -0.8596 H       
  55 H55           -5.7458    -6.6974     1.5685 H       
  56 H56           -5.4831    -4.7008     2.9690 H       
  57 H57           -3.0082    -1.5704    -1.9278 H       
  58 H58           -4.6320    -2.0327    -2.4915 H       
  59 H59           -4.3609    -0.4227    -1.7827 H       
  60 H60           -3.9050    -2.0092     3.7516 H       
  61 H61           -5.0524    -0.7204     3.3149 H       
  62 H62           -5.6516    -2.3495     3.7087 H       
@<TRIPOS>BOND
   1    1    2 1
   2    1    7 am
   3    1    6 1
   4    2    3 1
   5    2   36 1
   6    2   37 1
   7    3    4 1
   8    3   38 1
   9    3   39 1
  10    4    5 1
  11    4   14 am
  12    5    6 1
  13    5   40 1
  14    5   41 1
  15    6   17 1
  16    6   18 1
  17    7    8 1
  18    7   13 2
  19    8    9 2
  20    8   10 1
  21    9   12 1
  22   10   11 2
  23   11   12 1
  24   11   42 1
  25   12   19 1
  26   14   15 1
  27   14   16 2
  28   15   26 2
  29   15   29 1
  30   17   43 1
  31   17   44 1
  32   17   45 1
  33   18   46 1
  34   18   47 1
  35   18   48 1
  36   19   20 ar
  37   19   24 ar
  38   20   21 ar
  39   20   49 1
  40   21   22 ar
  41   21   25 1
  42   22   23 ar
  43   22   50 1
  44   23   24 ar
  45   23   51 1
  46   24   52 1
  47   26   27 1
  48   26   34 1
  49   27   28 ar
  50   27   30 ar
  51   28   29 1
  52   28   33 ar
  53   29   35 1
  54   30   31 ar
  55   30   53 1
  56   31   32 ar
  57   31   54 1
  58   32   33 ar
  59   32   55 1
  60   33   56 1
  61   34   57 1
  62   34   58 1
  63   34   59 1
  64   35   60 1
  65   35   61 1
  66   35   62 1

#	End of record

