#	Name: ASD04882257
#	Creating user name:	WinNT
#	Creation time:	15. 06. 2019 20:54

#	Modifying user name:	WinNT
#	Modification time:	15. 06. 2019 20:54

#	Program:	/corina/corina34_cracker 3.40 0067  02.08.2006

@<TRIPOS>MOLECULE
ASD04882257
  83   88    0    0    0
SMALL
NO_CHARGES


@<TRIPOS>ATOM
   1 N1            -0.1359     1.5549    -0.0366 N.am    
   2 C2            -0.0762     0.1550    -0.0459 C.ar    
   3 C3            -1.2526    -0.5957     0.0296 C.ar    
   4 C4            -1.1949    -1.9847     0.0209 C.ar    
   5 C5             0.0211    -2.6259    -0.0622 C.ar    
   6 C6             1.2015    -1.8812    -0.1380 C.ar    
   7 C7             1.1457    -0.4845    -0.1356 C.ar    
   8 N8            -2.4843     0.0484     0.1142 N.3     
   9 C9            -2.6114     0.7772     1.3839 C.3     
  10 C10           -3.5899    -0.9047    -0.0556 C.3     
  11 C11           -4.9200    -0.1478    -0.0358 C.3     
  12 N12           -5.0470     0.5809     1.2340 N.3     
  13 C13           -3.9415     1.5341     1.4037 C.3     
  14 C14            2.5040    -2.5682    -0.2260 C.2     
  15 O15            3.5304    -1.9195    -0.2920 O.2     
  16 C16           -6.2825     1.2271     1.3188 C.ar    
  17 C17           -7.1948     1.1240     0.2767 C.ar    
  18 C18           -6.6037     1.9696     2.4482 C.ar    
  19 C19           -7.8259     2.6072     2.5288 C.ar    
  20 C20           -8.7300     2.5068     1.4870 C.ar    
  21 C21           -8.4156     1.7643     0.3638 C.ar    
  22 C22            0.8460     2.2673     0.5506 C.2     
  23 C23            0.8492     3.7381     0.4524 C.2     
  24 O24            1.7295     1.6967     1.1615 O.2     
  25 C25            1.7708     4.5824     0.9910 C.2     
  26 N26           -0.0655     4.5068    -0.1986 N.2     
  27 C27            0.2728     5.7539    -0.0622 C.2     
  28 O28            1.3969     5.8299     0.6642 O.3     
  29 N29            2.5564    -3.9150    -0.2334 N.am    
  30 C30            3.8498    -4.5973    -0.3208 C.3     
  31 C31            3.6295    -6.1113    -0.3106 C.3     
  32 C32           -0.4778     6.9291    -0.6336 C.3     
  33 C33            4.9804    -6.8239    -0.4019 C.3     
  34 N34            4.7694    -8.2736    -0.3922 N.am    
  35 C35            4.5875    -9.0210    -1.4945 C.2     
  36 C36            4.3907   -10.4716    -1.1130 C.3     
  37 C37            4.0662   -10.4255     0.3982 C.3     
  38 C38            4.7358    -9.0973     0.8220 C.3     
  39 O39            4.5816    -8.5944    -2.6298 O.2     
  40 C40           -8.1752     3.4128     3.7535 C.3     
  41 C41          -10.0633     3.2031     1.5789 C.3     
  42 C42           -1.0156     7.9699     0.3505 C.3     
  43 C43            0.1846     8.3049    -0.5373 C.3     
  44 H44           -0.8819     2.0113    -0.4561 H       
  45 H45           -2.1056    -2.5622     0.0797 H       
  46 H46            0.0628    -3.7051    -0.0684 H       
  47 H47            2.0561     0.0935    -0.1944 H       
  48 H48           -2.5827     0.0705     2.2133 H       
  49 H49           -1.7885     1.4855     1.4807 H       
  50 H50           -3.4804    -1.4227    -1.0084 H       
  51 H51           -3.5723    -1.6305     0.7574 H       
  52 H52           -4.9486     0.5589    -0.8652 H       
  53 H53           -5.7429    -0.8561    -0.1325 H       
  54 H54           -4.0510     2.0521     2.3565 H       
  55 H55           -3.9590     2.2599     0.5907 H       
  56 H56           -6.9499     0.5442    -0.6009 H       
  57 H57           -5.8984     2.0478     3.2624 H       
  58 H58           -9.1239     1.6880    -0.4480 H       
  59 H59            2.6378     4.3024     1.5709 H       
  60 H60            1.7376    -4.4325    -0.1808 H       
  61 H61            4.3508    -4.3092    -1.2450 H       
  62 H62            4.4682    -4.3144     0.5311 H       
  63 H63            3.1285    -6.3993     0.6136 H       
  64 H64            3.0112    -6.3942    -1.1625 H       
  65 H65           -1.0756     6.7189    -1.5205 H       
  66 H66            5.4814    -6.5358    -1.3261 H       
  67 H67            5.5987    -6.5410     0.4500 H       
  68 H68            3.5582   -10.9027    -1.6689 H       
  69 H69            5.3039   -11.0398    -1.2899 H       
  70 H70            2.9895   -10.3949     0.5652 H       
  71 H71            4.5165   -11.2701     0.9198 H       
  72 H72            5.7459    -9.2837     1.1868 H       
  73 H73            4.1413    -8.6038     1.5909 H       
  74 H74           -7.8513     4.4443     3.6144 H       
  75 H75           -9.2538     3.3885     3.9090 H       
  76 H76           -7.6731     2.9885     4.6230 H       
  77 H77           -9.9773     4.2085     1.1668 H       
  78 H78          -10.8065     2.6410     1.0135 H       
  79 H79          -10.3704     3.2635     2.6230 H       
  80 H80           -1.9671     8.4447     0.1108 H       
  81 H81           -0.8265     7.8046     1.4111 H       
  82 H82            1.1633     8.3600    -0.0608 H       
  83 H83            0.0227     9.0001    -1.3611 H       
@<TRIPOS>BOND
   1    1    2 1
   2    1   22 am
   3    1   44 1
   4    2    3 ar
   5    2    7 ar
   6    3    4 ar
   7    3    8 1
   8    4    5 ar
   9    4   45 1
  10    5    6 ar
  11    5   46 1
  12    6    7 ar
  13    6   14 1
  14    7   47 1
  15    8    9 1
  16    8   10 1
  17    9   13 1
  18    9   48 1
  19    9   49 1
  20   10   11 1
  21   10   50 1
  22   10   51 1
  23   11   12 1
  24   11   52 1
  25   11   53 1
  26   12   13 1
  27   12   16 1
  28   13   54 1
  29   13   55 1
  30   14   15 2
  31   14   29 am
  32   16   17 ar
  33   16   18 ar
  34   17   21 ar
  35   17   56 1
  36   18   19 ar
  37   18   57 1
  38   19   20 ar
  39   19   40 1
  40   20   21 ar
  41   20   41 1
  42   21   58 1
  43   22   24 2
  44   22   23 1
  45   23   25 2
  46   23   26 1
  47   25   28 1
  48   25   59 1
  49   26   27 2
  50   27   28 1
  51   27   32 1
  52   29   30 1
  53   29   60 1
  54   30   31 1
  55   30   61 1
  56   30   62 1
  57   31   33 1
  58   31   63 1
  59   31   64 1
  60   32   42 1
  61   32   43 1
  62   32   65 1
  63   33   34 1
  64   33   66 1
  65   33   67 1
  66   34   35 am
  67   34   38 1
  68   35   36 1
  69   35   39 2
  70   36   37 1
  71   36   68 1
  72   36   69 1
  73   37   38 1
  74   37   70 1
  75   37   71 1
  76   38   72 1
  77   38   73 1
  78   40   74 1
  79   40   75 1
  80   40   76 1
  81   41   77 1
  82   41   78 1
  83   41   79 1
  84   42   43 1
  85   42   80 1
  86   42   81 1
  87   43   82 1
  88   43   83 1

#	End of record

