#	Name: ASD01885683
#	Creating user name:	WinNT
#	Creation time:	15. 06. 2019 19:50

#	Modifying user name:	WinNT
#	Modification time:	15. 06. 2019 19:50

#	Program:	/corina/corina34_cracker 3.40 0067  02.08.2006

@<TRIPOS>MOLECULE
ASD01885683
  53   56    0    0    0
SMALL
NO_CHARGES


@<TRIPOS>ATOM
   1 C1             0.6552     0.8831     1.4219 C.ar    
   2 C2             1.8432     1.6565     1.4469 C.ar    
   3 C3             3.0791     1.0122     1.7073 C.ar    
   4 C4             3.0636    -0.3585     1.9272 C.ar    
   5 C5             1.8474    -1.0495     1.8853 C.ar    
   6 N6             0.7076    -0.4310     1.6412 N.ar    
   7 C7            -0.5973     2.8656     0.9368 C.ar    
   8 C8             0.5726     3.6224     0.9672 C.ar    
   9 C9             1.7776     3.0366     1.2148 C.ar    
  10 C10            4.3463     1.7770     1.7432 C.ar    
  11 C11            1.8394    -2.5135     2.1207 C.2     
  12 C12           -1.9125     3.5448     0.6541 C.3     
  13 C13           -0.5708     1.5236     1.1572 C.ar    
  14 N14            0.6776    -3.1956     2.0839 N.am    
  15 O15            2.8802    -3.0981     2.3468 O.2     
  16 N16           -2.5165     3.9834     1.9147 N.pl3   
  17 N17           -2.7627     3.2360     2.9333 N.2     
  18 N18           -3.2941     3.9315     3.8759 N.2     
  19 C19           -3.4072     5.2001     3.4670 C.2     
  20 C20           -2.9060     5.2451     2.2105 C.2     
  21 C21            5.3369     1.5365     0.7914 C.ar    
  22 C22            6.5156     2.2527     0.8296 C.ar    
  23 C23            6.7175     3.2087     1.8093 C.ar    
  24 C24            5.7408     3.4534     2.7574 C.ar    
  25 C25            4.5529     2.7473     2.7274 C.ar    
  26 C26           -3.9757     6.3535     4.2528 C.3     
  27 C27           -2.9054     7.4341     4.4191 C.3     
  28 O28           -5.0979     6.8979     3.5554 O.3     
  29 C29           -4.4217     5.8611     5.6310 C.3     
  30 C30           -5.5476     4.8381     5.4673 C.3     
  31 F31           -2.5825     7.9673     3.1666 F       
  32 F32           -3.3939     8.4508     5.2468 F       
  33 F33           -1.7613     6.8724     4.9959 F       
  34 F34            3.5964     2.9908     3.6499 F       
  35 H35            3.9833    -0.8876     2.1286 H       
  36 H36            0.5240     4.6863     0.7881 H       
  37 H37            2.6777     3.6332     1.2324 H       
  38 H38           -1.7445     4.4092     0.0117 H       
  39 H39           -2.5826     2.8454     0.1542 H       
  40 H40           -1.4863     0.9514     1.1289 H       
  41 H41           -0.1534    -2.7288     1.9034 H       
  42 H42            0.6723    -4.1532     2.2380 H       
  43 H43           -2.8363     6.1123     1.5706 H       
  44 H44            5.1818     0.7905     0.0259 H       
  45 H45            7.2830     2.0664     0.0929 H       
  46 H46            7.6422     3.7661     1.8340 H       
  47 H47            5.9028     4.2038     3.5170 H       
  48 H48           -5.8170     6.2670     3.4140 H       
  49 H49           -3.5785     5.3949     6.1407 H       
  50 H50           -4.7806     6.7052     6.2199 H       
  51 H51           -6.4267     5.3290     5.0498 H       
  52 H52           -5.2219     4.0436     4.7959 H       
  53 H53           -5.7963     4.4128     6.4397 H       
@<TRIPOS>BOND
   1    1    6 ar
   2    1    2 ar
   3    1   13 ar
   4    2    3 ar
   5    2    9 ar
   6    3   10 1
   7    3    4 ar
   8    4    5 ar
   9    4   35 1
  10    5   11 1
  11    5    6 ar
  12    7   12 1
  13    7   13 ar
  14    7    8 ar
  15    8    9 ar
  16    8   36 1
  17    9   37 1
  18   10   21 ar
  19   10   25 ar
  20   11   14 am
  21   11   15 2
  22   12   16 1
  23   12   38 1
  24   12   39 1
  25   13   40 1
  26   14   41 1
  27   14   42 1
  28   16   17 1
  29   16   20 1
  30   17   18 2
  31   18   19 1
  32   19   20 2
  33   19   26 1
  34   20   43 1
  35   21   22 ar
  36   21   44 1
  37   22   23 ar
  38   22   45 1
  39   23   24 ar
  40   23   46 1
  41   24   25 ar
  42   24   47 1
  43   25   34 1
  44   26   27 1
  45   26   28 1
  46   26   29 1
  47   27   31 1
  48   27   32 1
  49   27   33 1
  50   28   48 1
  51   29   30 1
  52   29   49 1
  53   29   50 1
  54   30   51 1
  55   30   52 1
  56   30   53 1

#	End of record

