#	Name: ASD01810691
#	Creating user name:	WinNT
#	Creation time:	15. 06. 2019 19:25

#	Modifying user name:	WinNT
#	Modification time:	15. 06. 2019 19:25

#	Program:	/corina/corina34_cracker 3.40 0067  02.08.2006

@<TRIPOS>MOLECULE
ASD01810691
  35   36    0    0    0
SMALL
NO_CHARGES


@<TRIPOS>ATOM
   1 C1            -0.0187     1.5258     0.0104 C.3     
   2 C2             0.0021    -0.0041     0.0020 C.3     
   3 C3             1.3165     0.7789    -0.0063 C.3     
   4 C4            -0.4420     2.2229    -1.2568 C.2     
   5 O5             0.2647     2.1783    -2.2358 O.2     
   6 O6            -1.6041     2.8934    -1.2979 O.3     
   7 C7            -0.3780    -0.7121     1.2769 C.2     
   8 O8             0.3456    -0.6480     2.2423 O.2     
   9 O9            -1.5204    -1.4140     1.3398 O.3     
  10 C10            2.1077     0.7967    -1.2888 C.ar    
  11 C11            3.3818     1.3335    -1.3063 C.ar    
  12 C12            4.1091     1.3509    -2.4807 C.ar    
  13 C13            3.5601     0.8293    -3.6431 C.ar    
  14 C14            2.2815     0.2913    -3.6229 C.ar    
  15 C15            1.5605     0.2711    -2.4447 C.ar    
  16 O16            4.2734     0.8458    -4.7997 O.3     
  17 C17            3.6451     0.2916    -5.9573 C.3     
  18 C18           -1.9477     3.5406    -2.5514 C.3     
  19 C19           -1.8225    -2.0700     2.5994 C.3     
  20 H20           -0.3072     2.0201     0.9381 H       
  21 H21           -0.2904    -0.5063    -0.9201 H       
  22 H22            1.9064     0.7818     0.9103 H       
  23 H23            3.8086     1.7397    -0.4013 H       
  24 H24            5.1041     1.7707    -2.4940 H       
  25 H25            1.8519    -0.1154    -4.5265 H       
  26 H26            0.5669    -0.1520    -2.4273 H       
  27 H27            3.4070    -0.7563    -5.7750 H       
  28 H28            2.7281     0.8407    -6.1710 H       
  29 H29            4.3210     0.3677    -6.8091 H       
  30 H30           -2.0135     2.7919    -3.3408 H       
  31 H31           -2.9083     4.0453    -2.4484 H       
  32 H32           -1.1792     4.2705    -2.8061 H       
  33 H33           -1.0298    -2.7787     2.8393 H       
  34 H34           -1.8937    -1.3232     3.3901 H       
  35 H35           -2.7708    -2.6007     2.5145 H       
@<TRIPOS>BOND
   1    1    2 1
   2    1    3 1
   3    1    4 1
   4    1   20 1
   5    2    3 1
   6    2    7 1
   7    2   21 1
   8    3   10 1
   9    3   22 1
  10    4    5 2
  11    4    6 1
  12    6   18 1
  13    7    8 2
  14    7    9 1
  15    9   19 1
  16   10   11 ar
  17   10   15 ar
  18   11   12 ar
  19   11   23 1
  20   12   13 ar
  21   12   24 1
  22   13   14 ar
  23   13   16 1
  24   14   15 ar
  25   14   25 1
  26   15   26 1
  27   16   17 1
  28   17   27 1
  29   17   28 1
  30   17   29 1
  31   18   30 1
  32   18   31 1
  33   18   32 1
  34   19   33 1
  35   19   34 1
  36   19   35 1

#	End of record

