#	Name: ASD01128001
#	Creating user name:	WinNT
#	Creation time:	15. 06. 2019 18:59

#	Modifying user name:	WinNT
#	Modification time:	15. 06. 2019 18:59

#	Program:	/corina/corina34_cracker 3.40 0067  02.08.2006

@<TRIPOS>MOLECULE
ASD01128001
  27   28    0    0    0
SMALL
NO_CHARGES


@<TRIPOS>ATOM
   1 C1            -0.0167     1.3782     0.0096 C.ar    
   2 C2             0.0021    -0.0041     0.0020 C.ar    
   3 C3             1.2094    -0.6791    -0.0132 C.ar    
   4 C4             2.3977     0.0299    -0.0208 C.ar    
   5 C5             2.3777     1.4116    -0.0132 C.ar    
   6 C6             1.1706     2.0857     0.0021 C.ar    
   7 S7            -1.5545     2.2381     0.0216 S.o2    
   8 O8            -1.2973     3.5277    -0.5171 O.2     
   9 O9            -2.5173     1.3462    -0.5231 O.2     
  10 N10           -1.9748     2.4688     1.6067 N.am    
  11 Cl11           1.2338    -2.4149    -0.0222 Cl      
  12 C12           -1.2176     3.2552     2.3971 C.2     
  13 N13           -1.5567     3.4412     3.6757 N.2     
  14 O14           -0.2234     3.7966     1.9452 O.2     
  15 S15            0.6226     5.0662     4.0122 S.3     
  16 C16           -0.8087     4.2180     4.4565 C.2     
  17 N17           -1.0170     4.5044     5.7638 N.pl3   
  18 C18           -0.1166     5.3288     6.3665 C.2     
  19 C19            0.8824     5.7753     5.6153 C.2     
  20 Br20           2.2869     6.9258     6.1442 Br      
  21 H21           -0.9257    -0.5569     0.0083 H       
  22 H22            3.3407    -0.4966    -0.0323 H       
  23 H23            3.3051     1.9651    -0.0191 H       
  24 H24            1.1555     3.1656     0.0077 H       
  25 H25           -2.7660     2.0379     1.9663 H       
  26 H26           -1.7735     4.1389     6.2487 H       
  27 H27           -0.2109     5.6065     7.4060 H       
@<TRIPOS>BOND
   1    1    2 ar
   2    1    6 ar
   3    1    7 1
   4    2    3 ar
   5    2   21 1
   6    3    4 ar
   7    3   11 1
   8    4    5 ar
   9    4   22 1
  10    5    6 ar
  11    5   23 1
  12    6   24 1
  13    7    8 2
  14    7    9 2
  15    7   10 am
  16   10   12 am
  17   10   25 1
  18   12   13 1
  19   12   14 2
  20   13   16 2
  21   15   16 1
  22   15   19 1
  23   16   17 1
  24   17   18 1
  25   17   26 1
  26   18   19 2
  27   18   27 1
  28   19   20 1

#	End of record

