#	Name: ASD04910228
#	Creating user name:	WinNT
#	Creation time:	15. 06. 2019 20:55

#	Modifying user name:	WinNT
#	Modification time:	15. 06. 2019 20:55

#	Program:	/corina/corina34_cracker 3.40 0067  02.08.2006

@<TRIPOS>MOLECULE
ASD04910228
  45   46    0    0    0
SMALL
NO_CHARGES


@<TRIPOS>ATOM
   1 C1             0.4056     1.4449    -0.5160 C.3     
   2 C2             0.3765    -0.0846    -0.4918 C.3     
   3 C3             1.2264    -0.5925     0.6747 C.3     
   4 S4            -1.3336    -0.6537    -0.2866 S.o     
   5 O5            -1.9391     0.0450     0.7925 O.2     
   6 N6            -2.0977    -0.0235    -1.6138 N.am    
   7 C7             0.9400    -0.6263    -1.8071 C.3     
   8 C8            -3.3610    -0.2365    -1.7949 C.2     
   9 C9            -4.0415     0.3247    -2.9769 C.ar    
  10 C10           -5.4058     0.0957    -3.1742 C.ar    
  11 C11           -6.0379     0.6219    -4.2790 C.ar    
  12 C12           -5.3202     1.3797    -5.1976 C.ar    
  13 C13           -3.9626     1.6097    -5.0047 C.ar    
  14 C14           -3.3248     1.0916    -3.8993 C.ar    
  15 N15           -5.9656     1.9117    -6.3190 N.pl3   
  16 N16           -6.7025     1.1901    -7.2671 N.2     
  17 C17           -7.1509     2.0306    -8.1640 C.2     
  18 C18           -6.7164     3.3156    -7.8201 C.2     
  19 C19           -5.9944     3.2209    -6.6797 C.2     
  20 C20           -7.0071     4.5828    -8.5822 C.3     
  21 F21           -7.7887     4.2839    -9.7033 F       
  22 F22           -7.6985     5.4755    -7.7562 F       
  23 F23           -5.8038     5.1654    -8.9944 F       
  24 C24           -3.1893     2.4318    -6.0034 C.3     
  25 C25           -7.5092     0.3756    -4.4927 C.3     
  26 H26            1.4332     1.7869    -0.6393 H       
  27 H27           -0.1999     1.8067    -1.3470 H       
  28 H28            0.0042     1.8308     0.4210 H       
  29 H29            0.8250    -0.2066     1.6117 H       
  30 H30            1.2057    -1.6821     0.6919 H       
  31 H31            2.2540    -0.2505     0.5514 H       
  32 H32            1.9676    -0.2843    -1.9304 H       
  33 H33            0.9192    -1.7160    -1.7899 H       
  34 H34            0.3345    -0.2645    -2.6381 H       
  35 H35           -3.9172    -0.8253    -1.0805 H       
  36 H36           -5.9638    -0.4934    -2.4615 H       
  37 H37           -2.2712     1.2744    -3.7479 H       
  38 H38           -7.7533     1.7760    -9.0234 H       
  39 H39           -5.5238     4.0380    -6.1532 H       
  40 H40           -3.2953     3.4896    -5.7629 H       
  41 H41           -2.1360     2.1540    -5.9646 H       
  42 H42           -3.5774     2.2462    -7.0049 H       
  43 H43           -8.0851     1.1414    -3.9731 H       
  44 H44           -7.7329     0.4137    -5.5589 H       
  45 H45           -7.7739    -0.6065    -4.1009 H       
@<TRIPOS>BOND
   1    1    2 1
   2    1   26 1
   3    1   27 1
   4    1   28 1
   5    2    3 1
   6    2    4 1
   7    2    7 1
   8    3   29 1
   9    3   30 1
  10    3   31 1
  11    4    5 2
  12    4    6 am
  13    6    8 2
  14    7   32 1
  15    7   33 1
  16    7   34 1
  17    8    9 1
  18    8   35 1
  19    9   10 ar
  20    9   14 ar
  21   10   11 ar
  22   10   36 1
  23   11   12 ar
  24   11   25 1
  25   12   13 ar
  26   12   15 1
  27   13   14 ar
  28   13   24 1
  29   14   37 1
  30   15   16 1
  31   15   19 1
  32   16   17 2
  33   17   18 1
  34   17   38 1
  35   18   19 2
  36   18   20 1
  37   19   39 1
  38   20   21 1
  39   20   22 1
  40   20   23 1
  41   24   40 1
  42   24   41 1
  43   24   42 1
  44   25   43 1
  45   25   44 1
  46   25   45 1

#	End of record

