#	Name: ASD05430013
#	Creating user name:	WinNT
#	Creation time:	15. 06. 2019 20:59

#	Modifying user name:	WinNT
#	Modification time:	15. 06. 2019 20:59

#	Program:	/corina/corina34_cracker 3.40 0067  02.08.2006

@<TRIPOS>MOLECULE
ASD05430013
  69   74    0    0    0
SMALL
NO_CHARGES


@<TRIPOS>ATOM
   1 C1            -0.0227     1.4159     0.1778 C.ar    
   2 C2             0.0175     0.1531     0.7679 C.ar    
   3 C3            -1.1537    -0.4472     1.2121 C.ar    
   4 C4            -2.3608     0.2023     1.0718 C.ar    
   5 C5            -2.4087     1.4693     0.4813 C.ar    
   6 C6            -1.2291     2.0759     0.0394 C.ar    
   7 C7            -4.8135    -0.0459    -0.0984 C.3     
   8 C8            -4.8260     1.4562     0.1407 C.2     
   9 C9            -3.6974     2.1645     0.3301 C.2     
  10 C10           -5.8255    -0.3653    -1.1994 C.3     
  11 C11           -7.2592     0.0393    -0.8548 C.3     
  12 N12           -7.2684     1.4289    -0.4038 N.pl3   
  13 C13           -6.1660     2.0844     0.1500 C.2     
  14 C14           -8.3544     2.4101    -0.4397 C.3     
  15 O15           -7.9169     3.4201     0.4935 O.3     
  16 N16           -6.5172     3.2248     0.6430 N.2     
  17 N17            1.2424    -0.5122     0.9127 N.pl3   
  18 C18            1.7263    -1.0885     2.0586 C.2     
  19 C19            2.9285    -1.6133     1.7537 C.2     
  20 N20            3.1765    -1.3672     0.4587 N.2     
  21 C21            2.1717    -0.7131    -0.0574 C.2     
  22 C22           -8.5008     2.9912    -1.8225 C.ar    
  23 C23           -8.1182     2.2521    -2.9263 C.ar    
  24 C24           -9.0230     4.2607    -1.9865 C.ar    
  25 C25           -9.1586     4.7942    -3.2541 C.ar    
  26 C26           -8.7708     4.0570    -4.3601 C.ar    
  27 C27           -8.2524     2.7837    -4.1949 C.ar    
  28 C28           -9.6685     1.7787     0.0244 C.3     
  29 C29            3.8381    -2.3491     2.7035 C.3     
  30 O30            1.1255     2.0003    -0.2562 O.3     
  31 C31            1.0102     3.2946    -0.8508 C.3     
  32 F32           -8.9029     4.5775    -5.5997 F       
  33 C33           -5.3785     0.0986    -2.5928 C.3     
  34 N34           -5.8870    -1.2011    -3.0752 N.am    
  35 C35           -5.7091    -1.7989    -1.7368 C.3     
  36 S36           -6.4368    -1.7629    -4.5327 S.o2    
  37 O37           -7.3099    -2.8304    -4.1900 O.2     
  38 O38           -6.9224    -0.6031    -5.1947 O.2     
  39 C39           -4.9531    -2.3955    -5.3628 C.3     
  40 H40           -1.1182    -1.4255     1.6682 H       
  41 H41           -3.2700    -0.2671     1.4174 H       
  42 H42           -1.2616     3.0543    -0.4167 H       
  43 H43           -3.8179    -0.3597    -0.4122 H       
  44 H44           -5.0914    -0.5661     0.8182 H       
  45 H45           -3.7372     3.2430     0.3712 H       
  46 H46           -7.8888    -0.0611    -1.7389 H       
  47 H47           -7.6386    -0.6040    -0.0608 H       
  48 H48            1.2376    -1.1157     3.0213 H       
  49 H49            2.0951    -0.3814    -1.0823 H       
  50 H50           -7.7139     1.2590    -2.7973 H       
  51 H51           -9.3254     4.8356    -1.1237 H       
  52 H52           -9.5672     5.7857    -3.3820 H       
  53 H53           -7.9493     2.2079    -5.0568 H       
  54 H54           -9.5559     1.4148     1.0456 H       
  55 H55          -10.4622     2.5250    -0.0100 H       
  56 H56           -9.9234     0.9466    -0.6319 H       
  57 H57            3.6056    -3.4137     2.6779 H       
  58 H58            4.8753    -2.1965     2.4048 H       
  59 H59            3.6915    -1.9693     3.7146 H       
  60 H60            0.5830     3.9897    -0.1280 H       
  61 H61            1.9973     3.6451    -1.1523 H       
  62 H62            0.3625     3.2362    -1.7255 H       
  63 H63           -5.9355     0.9561    -2.9704 H       
  64 H64           -4.2991     0.2129    -2.6929 H       
  65 H65           -4.7280    -2.2479    -1.5826 H       
  66 H66           -6.5291    -2.4500    -1.4336 H       
  67 H67           -4.5109    -3.1896    -4.7612 H       
  68 H68           -5.2249    -2.7899    -6.3420 H       
  69 H69           -4.2321    -1.5871    -5.4841 H       
@<TRIPOS>BOND
   1    1    2 ar
   2    1   30 1
   3    1    6 ar
   4    2    3 ar
   5    2   17 1
   6    3    4 ar
   7    3   40 1
   8    4    5 ar
   9    4   41 1
  10    5    6 ar
  11    5    9 1
  12    6   42 1
  13    7    8 1
  14    7   10 1
  15    7   43 1
  16    7   44 1
  17    8    9 2
  18    8   13 1
  19    9   45 1
  20   10   11 1
  21   10   33 1
  22   10   35 1
  23   11   12 1
  24   11   46 1
  25   11   47 1
  26   12   13 1
  27   12   14 1
  28   13   16 2
  29   14   15 1
  30   14   22 1
  31   14   28 1
  32   15   16 1
  33   17   18 1
  34   17   21 1
  35   18   19 2
  36   18   48 1
  37   19   20 1
  38   19   29 1
  39   20   21 2
  40   21   49 1
  41   22   23 ar
  42   22   24 ar
  43   23   27 ar
  44   23   50 1
  45   24   25 ar
  46   24   51 1
  47   25   26 ar
  48   25   52 1
  49   26   27 ar
  50   26   32 1
  51   27   53 1
  52   28   54 1
  53   28   55 1
  54   28   56 1
  55   29   57 1
  56   29   58 1
  57   29   59 1
  58   30   31 1
  59   31   60 1
  60   31   61 1
  61   31   62 1
  62   33   34 1
  63   33   63 1
  64   33   64 1
  65   34   35 1
  66   34   36 am
  67   35   65 1
  68   35   66 1
  69   36   37 2
  70   36   38 2
  71   36   39 1
  72   39   67 1
  73   39   68 1
  74   39   69 1

#	End of record

