#	Name: ASD00310028
#	Creating user name:	WinNT
#	Creation time:	15. 06. 2019 18:33

#	Modifying user name:	WinNT
#	Modification time:	15. 06. 2019 18:33

#	Program:	/corina/corina34_cracker 3.40 0067  02.08.2006

@<TRIPOS>MOLECULE
ASD00310028
  40   43    0    0    0
SMALL
NO_CHARGES


@<TRIPOS>ATOM
   1 N1            -0.0163     1.3506     0.0095 N.pl3   
   2 C2             0.0021    -0.0041     0.0020 C.2     
   3 C3             1.2919    -0.4478    -0.0127 C.2     
   4 C4             2.1470     0.7550    -0.0144 C.ar    
   5 C5             3.5245     0.9596    -0.0264 C.ar    
   6 C6             4.0256     2.2573    -0.0243 C.ar    
   7 C7             3.1464     3.3468    -0.0100 C.ar    
   8 C8             1.7843     3.1449     0.0019 C.ar    
   9 C9             1.2693     1.8507    -0.0001 C.ar    
  10 C10            1.7405    -1.8448    -0.0245 C.2     
  11 O11            2.9290    -2.1016    -0.0367 O.2     
  12 O12            0.8348    -2.8438    -0.0217 O.3     
  13 C13            5.4910     2.4866    -0.0365 C.ar    
  14 C14            6.0932     3.1038    -1.1314 C.ar    
  15 C15            7.4570     3.3151    -1.1372 C.ar    
  16 C16            8.2261     2.9152    -0.0592 C.ar    
  17 C17            7.6338     2.3018     1.0300 C.ar    
  18 C18            6.2700     2.0910     1.0493 C.ar    
  19 O19           10.1928     3.4178     1.2643 O.3     
  20 C20            9.7149     3.1483    -0.0717 C.3     
  21 C21           10.4566     1.8642    -0.5046 C.3     
  22 C22           11.7308     1.8539     0.3693 C.3     
  23 C23           11.6082     3.1330     1.2268 C.3     
  24 F24            3.6379     4.6052    -0.0075 F       
  25 F25            4.3685    -0.0952    -0.0397 F       
  26 H26           -0.8206     1.8928     0.0164 H       
  27 H27           -0.8728    -0.6373     0.0070 H       
  28 H28            1.1140     3.9917     0.0132 H       
  29 H29            1.1782    -3.7477    -0.0298 H       
  30 H30            5.4938     3.4158    -1.9739 H       
  31 H31            7.9248     3.7933    -1.9851 H       
  32 H32            8.2391     1.9912     1.8687 H       
  33 H33            5.8079     1.6163     1.9022 H       
  34 H34            9.9633     3.9748    -0.7375 H       
  35 H35            9.8469     0.9839    -0.3012 H       
  36 H36           10.7187     1.9125    -1.5615 H       
  37 H37           11.7510     0.9685     1.0047 H       
  38 H38           12.6229     1.8971    -0.2556 H       
  39 H39           12.1487     3.9562     0.7597 H       
  40 H40           11.9858     2.9526     2.2333 H       
@<TRIPOS>BOND
   1    1    2 1
   2    1    9 1
   3    1   26 1
   4    2    3 2
   5    2   27 1
   6    3    4 1
   7    3   10 1
   8    4    5 ar
   9    4    9 ar
  10    5    6 ar
  11    5   25 1
  12    6    7 ar
  13    6   13 1
  14    7    8 ar
  15    7   24 1
  16    8    9 ar
  17    8   28 1
  18   10   11 2
  19   10   12 1
  20   12   29 1
  21   13   14 ar
  22   13   18 ar
  23   14   15 ar
  24   14   30 1
  25   15   16 ar
  26   15   31 1
  27   16   17 ar
  28   16   20 1
  29   17   18 ar
  30   17   32 1
  31   18   33 1
  32   19   20 1
  33   19   23 1
  34   20   21 1
  35   20   34 1
  36   21   22 1
  37   21   35 1
  38   21   36 1
  39   22   23 1
  40   22   37 1
  41   22   38 1
  42   23   39 1
  43   23   40 1

#	End of record

