#	Name: ASD08150290
#	Creating user name:	WinNT
#	Creation time:	15. 06. 2019 21:15

#	Modifying user name:	WinNT
#	Modification time:	15. 06. 2019 21:15

#	Program:	/corina/corina34_cracker 3.40 0067  02.08.2006

@<TRIPOS>MOLECULE
ASD08150290
  50   52    0    0    0
SMALL
NO_CHARGES


@<TRIPOS>ATOM
   1 O1            -1.5351     2.1806    -0.1752 O.3     
   2 C2            -1.7341     0.8781     0.0557 C.2     
   3 N3            -0.7778     0.3075     0.8010 N.am    
   4 C4             0.2276     1.3245     1.1454 C.3     
   5 C5            -0.3005     2.6055     0.4714 C.3     
   6 O6            -2.6947     0.2683    -0.3708 O.2     
   7 C7             0.7002     3.1170    -0.5668 C.3     
   8 O8             0.1999     4.3171    -1.1598 O.3     
   9 Si9            1.2060     4.9847    -2.2563 Si      
  10 C10            0.7093     6.7601    -2.5573 C.ar    
  11 C11            1.6266     7.7764    -2.3658 C.ar    
  12 C12            1.2590     9.0902    -2.5885 C.ar    
  13 C13           -0.0257     9.3877    -3.0031 C.ar    
  14 C14           -0.9427     8.3714    -3.1954 C.ar    
  15 C15           -0.5739     7.0572    -2.9769 C.ar    
  16 C16            2.9574     4.9292    -1.6092 C.ar    
  17 C17            3.3983     5.8955    -0.7244 C.ar    
  18 C18            4.6944     5.8545    -0.2455 C.ar    
  19 C19            5.5495     4.8470    -0.6511 C.ar    
  20 C20            5.1084     3.8802    -1.5352 C.ar    
  21 C21            3.8110     3.9187    -2.0107 C.ar    
  22 C22            1.1038     4.0318    -3.8539 C.3     
  23 C23           -0.2222     4.3445    -4.5503 C.3     
  24 C24            2.2655     4.4359    -4.7639 C.3     
  25 C25            1.1842     2.5326    -3.5596 C.3     
  26 H26           -0.7526    -0.6242     1.0696 H       
  27 H27            0.2847     1.4559     2.2259 H       
  28 H28            1.2020     1.0522     0.7398 H       
  29 H29           -0.5047     3.3735     1.2175 H       
  30 H30            1.6544     3.3220    -0.0815 H       
  31 H31            0.8405     2.3611    -1.3395 H       
  32 H32            2.6303     7.5439    -2.0419 H       
  33 H33            1.9754     9.8843    -2.4383 H       
  34 H34           -0.3131    10.4143    -3.1764 H       
  35 H35           -1.9466     8.6038    -3.5190 H       
  36 H36           -1.2892     6.2628    -3.1307 H       
  37 H37            2.7302     6.6827    -0.4075 H       
  38 H38            5.0390     6.6098     0.4452 H       
  39 H39            6.5624     4.8153    -0.2776 H       
  40 H40            5.7766     3.0932    -1.8523 H       
  41 H41            3.4652     3.1613    -2.6985 H       
  42 H42           -0.3088     5.4206    -4.7005 H       
  43 H43           -0.2537     3.8391    -5.5155 H       
  44 H44           -1.0488     3.9965    -3.9308 H       
  45 H45            3.2056     4.1082    -4.3202 H       
  46 H46            2.1419     3.9677    -5.7404 H       
  47 H47            2.2765     5.5197    -4.8794 H       
  48 H48            0.2827     2.2165    -3.0346 H       
  49 H49            1.2706     1.9825    -4.4966 H       
  50 H50            2.0564     2.3306    -2.9379 H       
@<TRIPOS>BOND
   1    1    2 1
   2    1    5 1
   3    2    3 am
   4    2    6 2
   5    3    4 1
   6    3   26 1
   7    4    5 1
   8    4   27 1
   9    4   28 1
  10    5    7 1
  11    5   29 1
  12    7    8 1
  13    7   30 1
  14    7   31 1
  15    8    9 1
  16    9   10 1
  17    9   16 1
  18    9   22 1
  19   10   11 ar
  20   10   15 ar
  21   11   12 ar
  22   11   32 1
  23   12   13 ar
  24   12   33 1
  25   13   14 ar
  26   13   34 1
  27   14   15 ar
  28   14   35 1
  29   15   36 1
  30   16   17 ar
  31   16   21 ar
  32   17   18 ar
  33   17   37 1
  34   18   19 ar
  35   18   38 1
  36   19   20 ar
  37   19   39 1
  38   20   21 ar
  39   20   40 1
  40   21   41 1
  41   22   23 1
  42   22   25 1
  43   22   24 1
  44   23   42 1
  45   23   43 1
  46   23   44 1
  47   24   45 1
  48   24   46 1
  49   24   47 1
  50   25   48 1
  51   25   49 1
  52   25   50 1

#	End of record

