#	Name: ASD08150155
#	Creating user name:	WinNT
#	Creation time:	15. 06. 2019 21:15

#	Modifying user name:	WinNT
#	Modification time:	15. 06. 2019 21:15

#	Program:	/corina/corina34_cracker 3.40 0067  02.08.2006

@<TRIPOS>MOLECULE
ASD08150155
  43   47    0    0    0
SMALL
NO_CHARGES


@<TRIPOS>ATOM
   1 N1            -0.0155     1.2943     0.0092 N.2     
   2 C2             0.0021    -0.0041     0.0020 C.2     
   3 N3             1.1489    -0.7358    -0.0124 N.am    
   4 C4             2.3563    -0.1245    -0.0206 C.2     
   5 C5             2.3712     1.3446    -0.0133 C.ar    
   6 C6             3.5619     2.0696    -0.0204 C.ar    
   7 C7             3.5220     3.4358    -0.0127 C.ar    
   8 C8             2.3053     4.1107     0.0025 C.ar    
   9 C9             1.1131     3.4160     0.0097 C.ar    
  10 C10            1.1301     2.0206     0.0021 C.ar    
  11 O11            3.3903    -0.7671    -0.0331 O.2     
  12 F12            2.2910     5.4616     0.0108 F       
  13 C13            1.0794    -2.1350    -0.0184 C.ar    
  14 C14            1.0564    -2.8364     1.1814 C.ar    
  15 C15            0.9878    -4.2166     1.1715 C.ar    
  16 C16            0.9422    -4.8992    -0.0304 C.ar    
  17 C17            0.9650    -4.2039    -1.2252 C.ar    
  18 C18            1.0277    -2.8238    -1.2224 C.ar    
  19 Cl19           1.1142    -1.9797     2.6902 Cl      
  20 C20           -1.3144    -0.7375     0.0106 C.3     
  21 N21           -3.4545     0.2996    -0.8713 N.pl3   
  22 C22           -2.4446     0.2593     0.0268 C.2     
  23 N23           -2.5911     1.2081     0.9092 N.2     
  24 C24           -3.7022     1.9175     0.6353 C.ar    
  25 N25           -4.3060     2.9681     1.1997 N.ar    
  26 C26           -5.4148     3.4559     0.6889 C.ar    
  27 N27           -5.9844     2.9471    -0.3885 N.ar    
  28 C28           -5.4545     1.9009    -1.0170 C.ar    
  29 C29           -4.2766     1.3470    -0.5127 C.ar    
  30 N30           -6.0586     1.3727    -2.1465 N.pl3   
  31 H31            4.5110     1.5544    -0.0315 H       
  32 H32            4.4446     3.9973    -0.0181 H       
  33 H33            0.1735     3.9483     0.0219 H       
  34 H34            0.9702    -4.7626     2.1031 H       
  35 H35            0.8890    -5.9779    -0.0357 H       
  36 H36            0.9292    -4.7402    -2.1620 H       
  37 H37            1.0406    -2.2814    -2.1563 H       
  38 H38           -1.3903    -1.3584    -0.8820 H       
  39 H39           -1.3733    -1.3679     0.8979 H       
  40 H40           -3.5758    -0.2944    -1.6285 H       
  41 H41           -5.8779     4.3053     1.1690 H       
  42 H42           -6.8772     1.7659    -2.4875 H       
  43 H43           -5.6630     0.6098    -2.5963 H       
@<TRIPOS>BOND
   1    1    2 2
   2    1   10 1
   3    2    3 1
   4    2   20 1
   5    3    4 am
   6    3   13 1
   7    4    5 1
   8    4   11 2
   9    5    6 ar
  10    5   10 ar
  11    6    7 ar
  12    6   31 1
  13    7    8 ar
  14    7   32 1
  15    8    9 ar
  16    8   12 1
  17    9   10 ar
  18    9   33 1
  19   13   14 ar
  20   13   18 ar
  21   14   15 ar
  22   14   19 1
  23   15   16 ar
  24   15   34 1
  25   16   17 ar
  26   16   35 1
  27   17   18 ar
  28   17   36 1
  29   18   37 1
  30   20   22 1
  31   20   38 1
  32   20   39 1
  33   21   22 1
  34   21   29 1
  35   21   40 1
  36   22   23 2
  37   23   24 1
  38   24   25 ar
  39   24   29 ar
  40   25   26 ar
  41   26   27 ar
  42   26   41 1
  43   27   28 ar
  44   28   29 ar
  45   28   30 1
  46   30   42 1
  47   30   43 1

#	End of record

