#	Name: ASD01410742
#	Creating user name:	WinNT
#	Creation time:	15. 06. 2019 19:18

#	Modifying user name:	WinNT
#	Modification time:	15. 06. 2019 19:18

#	Program:	/corina/corina34_cracker 3.40 0067  02.08.2006

@<TRIPOS>MOLECULE
ASD01410742
 100  106    0    0    0
SMALL
NO_CHARGES


@<TRIPOS>ATOM
   1 N1             2.1469     2.1754    -2.2445 N.3     
   2 C2             1.8621    -1.5287    -1.5426 C.3     
   3 C3             1.6177    -0.2147    -2.3177 C.3     
   4 N4             2.6246    -0.2593    -3.3946 N.am    
   5 C5             2.6843    -1.6547    -3.8499 C.3     
   6 C6             2.2162    -2.5298    -2.6692 C.3     
   7 O7             2.9540    -1.3840    -0.6323 O.3     
   8 C8             1.7692    -1.8508    -5.0311 C.2     
   9 O9             1.1235    -0.9178    -5.4594 O.2     
  10 N10            1.6683    -3.0630    -5.6115 N.am    
  11 C11            1.8811     0.9897    -1.4226 C.3     
  12 C12            3.3934     2.0478    -3.0076 C.3     
  13 C13            3.3637     0.7764    -3.8208 C.2     
  14 O14            4.0017     0.6917    -4.8488 O.2     
  15 C15            3.5418     3.2481    -3.9447 C.3     
  16 C16            2.3649     3.2808    -4.9219 C.3     
  17 C17            0.7145    -3.2755    -6.7029 C.3     
  18 C18           -0.7402    -3.1608    -6.3264 C.2     
  19 N19           -1.0922    -3.0133    -5.0338 N.am    
  20 O20           -1.5943    -3.2012    -7.1866 O.2     
  21 S21           -2.6917    -3.0199    -4.6052 S.o2    
  22 C22           -3.2601    -4.6959    -5.0031 C.3     
  23 C23            1.1221    -2.8021    -8.0996 C.3     
  24 C24            1.0874    -4.2983    -7.7780 C.3     
  25 C25           -4.7502    -4.9965    -4.8292 C.3     
  26 C26           -4.1550    -4.8651    -6.2326 C.3     
  27 O27           -2.6785    -2.8186    -3.1986 O.2     
  28 O28           -3.2916    -2.0701    -5.4755 O.2     
  29 C29            0.0216    -2.2490    -9.0072 C.3     
  30 C30            0.6453    -1.7183   -10.2997 C.3     
  31 C31            2.9940    -2.2364     0.4217 C.ar    
  32 C32            4.0187    -2.1432     1.3923 C.ar    
  33 C33            2.0396    -3.2072     0.5777 C.ar    
  34 C34            2.1030    -4.0755     1.6759 C.ar    
  35 N35            3.0682    -3.9833     2.5753 N.ar    
  36 C36            4.0234    -3.0532     2.4783 C.ar    
  37 C37            1.0672    -5.1179     1.8329 C.2     
  38 C38            5.0439    -2.9657     3.4401 C.ar    
  39 C39            6.0149    -1.9985     3.3153 C.ar    
  40 C40            5.9970    -1.1018     2.2426 C.ar    
  41 C41            5.0230    -1.1692     1.2945 C.ar    
  42 O42            7.0017    -1.9137     4.2450 O.3     
  43 C43            7.9804    -0.8889     4.0606 C.3     
  44 N44            1.0087    -5.9853     2.8028 N.2     
  45 C45            0.0144    -6.8395     2.7808 C.2     
  46 C46           -0.8352    -6.7198     1.7524 C.2     
  47 S47           -0.2910    -5.3818     0.7423 S.3     
  48 C48           -0.1613    -7.8909     3.8461 C.3     
  49 C49           -1.1255    -7.3760     4.9166 C.3     
  50 C50           -0.7304    -9.1642     3.2170 C.3     
  51 C51            3.5578     4.5382    -3.1223 C.3     
  52 C52            5.0747    -3.9251     4.6018 C.3     
  53 H53            1.3682     2.3745    -2.8545 H       
  54 H54            0.9602    -1.8395    -1.0153 H       
  55 H55            0.6088    -0.1882    -2.7294 H       
  56 H56            3.7071    -1.9140    -4.1234 H       
  57 H57            3.0192    -3.1930    -2.3477 H       
  58 H58            1.3366    -3.1082    -2.9520 H       
  59 H59            2.2272    -3.7948    -5.3065 H       
  60 H60            2.7446     0.7876    -0.7889 H       
  61 H61            1.0085     1.1722    -0.7955 H       
  62 H62            4.2384     2.0187    -2.3198 H       
  63 H63            4.4745     3.1609    -4.5020 H       
  64 H64            1.4322     3.3681    -4.3646 H       
  65 H65            2.4707     4.1360    -5.5895 H       
  66 H66            2.3535     2.3617    -5.5078 H       
  67 H67           -0.4085    -2.9034    -4.3545 H       
  68 H68           -2.5556    -5.4969    -4.7789 H       
  69 H69            2.1000    -2.3326    -8.2063 H       
  70 H70            2.0426    -4.8129    -7.6734 H       
  71 H71            0.2806    -4.8880    -8.2132 H       
  72 H72           -5.0260    -5.9953    -4.4910 H       
  73 H73           -5.3890    -4.1871    -4.4757 H       
  74 H74           -4.4022    -3.9694    -6.8023 H       
  75 H75           -4.0392    -5.7776    -6.8176 H       
  76 H76           -0.6865    -3.0428    -9.2448 H       
  77 H77           -0.4985    -1.4392    -8.4956 H       
  78 H78            1.3534    -0.9245   -10.0621 H       
  79 H79            1.1654    -2.5281   -10.8113 H       
  80 H80           -0.1387    -1.3243   -10.9463 H       
  81 H81            1.2410    -3.3027    -0.1430 H       
  82 H82            6.7680    -0.3497     2.1629 H       
  83 H83            5.0206    -0.4706     0.4708 H       
  84 H84            8.4879    -1.0385     3.1076 H       
  85 H85            7.4914     0.0852     4.0628 H       
  86 H86            8.7084    -0.9318     4.8707 H       
  87 H87           -1.7053    -7.3345     1.5748 H       
  88 H88            0.8040    -8.1110     4.3021 H       
  89 H89           -1.2526    -8.1365     5.6871 H       
  90 H90           -0.7201    -6.4689     5.3648 H       
  91 H91           -2.0908    -7.1559     4.4606 H       
  92 H92           -0.0434    -9.5309     2.4543 H       
  93 H93           -0.8575    -9.9246     3.9875 H       
  94 H94           -1.6956    -8.9441     2.7610 H       
  95 H95            4.3403     4.4772    -2.3659 H       
  96 H96            3.7529     5.3856    -3.7795 H       
  97 H97            2.5915     4.6708    -2.6356 H       
  98 H98            5.6574    -4.8055     4.3306 H       
  99 H99            5.5318    -3.4381     5.4632 H       
 100 H100           4.0573    -4.2257     4.8519 H       
@<TRIPOS>BOND
   1    1   11 1
   2    1   12 1
   3    1   53 1
   4    2    3 1
   5    2    7 1
   6    2    6 1
   7    2   54 1
   8    3    4 1
   9    3   11 1
  10    3   55 1
  11    4    5 1
  12    4   13 am
  13    5    6 1
  14    5    8 1
  15    5   56 1
  16    6   57 1
  17    6   58 1
  18    7   31 1
  19    8    9 2
  20    8   10 am
  21   10   17 1
  22   10   59 1
  23   11   60 1
  24   11   61 1
  25   12   13 1
  26   12   15 1
  27   12   62 1
  28   13   14 2
  29   15   16 1
  30   15   51 1
  31   15   63 1
  32   16   64 1
  33   16   65 1
  34   16   66 1
  35   17   18 1
  36   17   23 1
  37   17   24 1
  38   18   19 am
  39   18   20 2
  40   19   21 am
  41   19   67 1
  42   21   22 1
  43   21   27 2
  44   21   28 2
  45   22   25 1
  46   22   26 1
  47   22   68 1
  48   23   24 1
  49   23   29 1
  50   23   69 1
  51   24   70 1
  52   24   71 1
  53   25   26 1
  54   25   72 1
  55   25   73 1
  56   26   74 1
  57   26   75 1
  58   29   30 1
  59   29   76 1
  60   29   77 1
  61   30   78 1
  62   30   79 1
  63   30   80 1
  64   31   32 ar
  65   31   33 ar
  66   32   36 ar
  67   32   41 ar
  68   33   34 ar
  69   33   81 1
  70   34   35 ar
  71   34   37 1
  72   35   36 ar
  73   36   38 ar
  74   37   44 2
  75   37   47 1
  76   38   39 ar
  77   38   52 1
  78   39   40 ar
  79   39   42 1
  80   40   41 ar
  81   40   82 1
  82   41   83 1
  83   42   43 1
  84   43   84 1
  85   43   85 1
  86   43   86 1
  87   44   45 1
  88   45   46 2
  89   45   48 1
  90   46   47 1
  91   46   87 1
  92   48   49 1
  93   48   50 1
  94   48   88 1
  95   49   89 1
  96   49   90 1
  97   49   91 1
  98   50   92 1
  99   50   93 1
 100   50   94 1
 101   51   95 1
 102   51   96 1
 103   51   97 1
 104   52   98 1
 105   52   99 1
 106   52  100 1

#	End of record

