#	Name: ASD01883995
#	Creating user name:	WinNT
#	Creation time:	15. 06. 2019 19:47

#	Modifying user name:	WinNT
#	Modification time:	15. 06. 2019 19:47

#	Program:	/corina/corina34_cracker 3.40 0067  02.08.2006

@<TRIPOS>MOLECULE
ASD01883995
  47   50    0    0    0
SMALL
NO_CHARGES


@<TRIPOS>ATOM
   1 Cl1            0.0000     0.0000     0.0000 Cl      
   2 H2             0.0000     1.3700     0.0000 H       
   3 C3            13.6410    18.8448     5.8831 C.3     
   4 N4            13.6608    17.3799     5.8750 N.am    
   5 C5            12.4624    16.6807     5.8769 C.2     
   6 C6            11.1721    17.1210     5.8851 C.2     
   7 C7            10.3318    15.9947     5.8824 C.2     
   8 N8            11.0875    14.9166     5.8730 N.2     
   9 N9            12.4307    15.3193     5.8693 N.pl3   
  10 C10           13.6118    14.5839     5.8598 C.ar    
  11 C11           13.5892    13.1998     5.8514 C.ar    
  12 C12           14.7889    12.4920     5.8415 C.ar    
  13 C13           16.0094    13.1724     5.8405 C.ar    
  14 C14           16.0392    14.5381     5.8488 C.ar    
  15 C15           14.8448    15.2594     5.8583 C.ar    
  16 C16           14.8437    16.7322     5.8602 C.2     
  17 O17           15.8903    17.3528     5.8536 O.2     
  18 C18           14.7708    11.0099     5.8324 C.ar    
  19 C19           15.9689    10.2854     5.8282 C.ar    
  20 C20           15.9023     8.9065     5.8197 C.ar    
  21 C21           14.6559     8.2860     5.8156 C.ar    
  22 N22           14.5807     6.8997     5.8071 N.pl3   
  23 N23           13.5405     9.0012     5.8202 N.ar    
  24 C24           13.5616    10.3185     5.8337 C.ar    
  25 C25            8.8480    16.0166     5.8891 C.ar    
  26 C26            8.1667    17.2321     5.8932 C.ar    
  27 C27            6.7866    17.2466     5.8990 C.ar    
  28 C28            6.0799    16.0575     5.9007 C.ar    
  29 C29            6.7511    14.8481     5.8971 C.ar    
  30 C30            8.1310    14.8219     5.8856 C.ar    
  31 H31           14.6636    19.2220     5.8753 H       
  32 H32           13.1138    19.2058     5.0000 H       
  33 H33           13.1308    19.1963     6.7799 H       
  34 H34           10.8525    18.1526     5.8928 H       
  35 H35           12.6470    12.6719     5.8528 H       
  36 H36           16.9345    12.6153     5.8335 H       
  37 H37           16.9855    15.0586     5.8484 H       
  38 H38           16.9221    10.7931     5.8312 H       
  39 H39           16.8065     8.3160     5.8160 H       
  40 H40           15.3933     6.3700     5.8040 H       
  41 H41           13.7156     6.4609     5.8042 H       
  42 H42           12.6318    10.8679     5.8418 H       
  43 H43            8.7175    18.1610     5.8922 H       
  44 H44            6.2575    18.1881     5.9025 H       
  45 H45            5.0000    16.0735     5.9052 H       
  46 H46            6.1944    13.9226     5.8988 H       
  47 H47            8.6541    13.8770     5.8783 H       
@<TRIPOS>BOND
   1    1    2 1
   2    3    4 1
   3    3   31 1
   4    3   32 1
   5    3   33 1
   6    4   16 am
   7    4    5 1
   8    5    9 1
   9    5    6 2
  10    6    7 1
  11    6   34 1
  12    7    8 2
  13    7   25 1
  14    8    9 1
  15    9   10 1
  16   10   15 ar
  17   10   11 ar
  18   11   12 ar
  19   11   35 1
  20   12   13 ar
  21   12   18 1
  22   13   14 ar
  23   13   36 1
  24   14   15 ar
  25   14   37 1
  26   15   16 1
  27   16   17 2
  28   18   24 ar
  29   18   19 ar
  30   19   20 ar
  31   19   38 1
  32   20   21 ar
  33   20   39 1
  34   21   22 1
  35   21   23 ar
  36   22   40 1
  37   22   41 1
  38   23   24 ar
  39   24   42 1
  40   25   30 ar
  41   25   26 ar
  42   26   27 ar
  43   26   43 1
  44   27   28 ar
  45   27   44 1
  46   28   29 ar
  47   28   45 1
  48   29   30 ar
  49   29   46 1
  50   30   47 1

#	End of record

