#	Name: ASD04910208
#	Creating user name:	WinNT
#	Creation time:	15. 06. 2019 20:55

#	Modifying user name:	WinNT
#	Modification time:	15. 06. 2019 20:55

#	Program:	/corina/corina34_cracker 3.40 0067  02.08.2006

@<TRIPOS>MOLECULE
ASD04910208
  14   14    0    0    0
SMALL
NO_CHARGES


@<TRIPOS>ATOM
   1 C1            -0.0143     1.2036     0.0087 C.2     
   2 O2             0.0021    -0.0041     0.0020 O.2     
   3 C3             1.2804     1.9748     0.0004 C.3     
   4 C4             1.4608     2.8887     1.2240 C.3     
   5 C5             2.9365     2.4560     1.2312 C.3     
   6 C6             2.4809     1.1687     0.5240 C.3     
   7 F7             3.7618     3.2660     0.4438 F       
   8 F8             3.4505     2.2388     2.5141 F       
   9 Cl9           -1.5293     2.0510     0.0205 Cl      
  10 H10            1.4693     2.4746    -0.9496 H       
  11 H11            1.3170     3.9465     1.0038 H       
  12 H12            0.9047     2.5586     2.1014 H       
  13 H13            2.2036     0.3683     1.2100 H       
  14 H14            3.1606     0.8380    -0.2613 H       
@<TRIPOS>BOND
   1    1    2 2
   2    1    3 1
   3    1    9 1
   4    3    4 1
   5    3    6 1
   6    3   10 1
   7    4    5 1
   8    4   11 1
   9    4   12 1
  10    5    6 1
  11    5    7 1
  12    5    8 1
  13    6   13 1
  14    6   14 1

#	End of record

