#	Name: ASD02448142
#	Creating user name:	WinNT
#	Creation time:	15. 06. 2019 20:21

#	Modifying user name:	WinNT
#	Modification time:	15. 06. 2019 20:21

#	Program:	/corina/corina34_cracker 3.40 0067  02.08.2006

@<TRIPOS>MOLECULE
ASD02448142
  71   76    0    0    0
SMALL
NO_CHARGES


@<TRIPOS>ATOM
   1 C1             0.3029     1.6669    -0.1754 C.ar    
   2 C2             0.2127     0.2905    -0.1202 C.ar    
   3 C3             1.3669    -0.4803    -0.0888 C.ar    
   4 C4             2.6123     0.1328    -0.1125 C.ar    
   5 C5             2.7034     1.5091    -0.1677 C.ar    
   6 C6             1.5488     2.2807    -0.1996 C.ar    
   7 N7             1.6406     3.6746    -0.2559 N.am    
   8 C8             0.6523     4.6236    -0.7849 C.3     
   9 C9             1.1319     6.0337    -0.6604 C.2     
  10 N10            2.3438     6.1676    -0.1034 N.am    
  11 S11            2.8947     4.6416     0.2690 S.o2    
  12 O12            0.4759     6.9828    -1.0345 O.2     
  13 O13            2.9419     4.5471     1.6860 O.2     
  14 O14            4.0025     4.3768    -0.5807 O.2     
  15 N15            1.2748    -1.8797    -0.0327 N.pl3   
  16 C16            0.6045    -2.6117     0.9101 C.2     
  17 C17            1.8293    -2.7591    -0.9073 C.2     
  18 N18            1.5295    -3.9717    -0.5332 N.2     
  19 C19            0.7755    -3.9195     0.5835 C.2     
  20 C20            0.2296    -5.0833     1.3241 C.ar    
  21 C21            0.4829    -6.3797     0.8756 C.ar    
  22 C22           -0.5331    -4.8855     2.4731 C.ar    
  23 C23           -1.0388    -5.9715     3.1586 C.ar    
  24 C24           -0.7898    -7.2560     2.7068 C.ar    
  25 C25           -0.0278    -7.4592     1.5689 C.ar    
  26 C26            1.7741    -2.3594    -3.3349 C.ar    
  27 C27            1.0706    -1.2097    -3.6456 C.ar    
  28 C28            1.6757    -3.4766    -4.1445 C.ar    
  29 C29            0.8746    -3.4495    -5.2680 C.ar    
  30 C30            0.1638    -2.2939    -5.5859 C.ar    
  31 C31            0.2658    -1.1717    -4.7662 C.ar    
  32 C32           -0.6988    -2.2586    -6.7928 C.ar    
  33 Cl33          -1.4286    -8.6172     3.5744 Cl      
  34 Cl34           1.4378    -6.6353    -0.5514 Cl      
  35 C35            2.6557    -2.3929    -2.1131 C.3     
  36 C36           -1.4095    -1.1033    -7.1106 C.ar    
  37 C37           -2.2100    -1.0758    -8.2348 C.ar    
  38 C38           -2.3076    -2.1925    -9.0448 C.ar    
  39 C39           -1.6041    -3.3424    -8.7340 C.ar    
  40 C40           -0.7964    -3.3791    -7.6157 C.ar    
  41 C41           -2.9794     0.1732    -8.5799 C.3     
  42 C42           -2.5439     0.6762    -9.9577 C.3     
  43 C43           -4.4769    -0.1398    -8.6012 C.3     
  44 H44           -0.5951     2.2662    -0.2043 H       
  45 H45           -0.7559    -0.1868    -0.1010 H       
  46 H46            3.5100    -0.4672    -0.0874 H       
  47 H47            3.6723     1.9859    -0.1858 H       
  48 H48            0.4698     4.4001    -1.8360 H       
  49 H49           -0.2802     4.5135    -0.2314 H       
  50 H50            2.8128     7.0015     0.0563 H       
  51 H51            0.0476    -2.2247     1.7507 H       
  52 H52           -0.7280    -3.8840     2.8271 H       
  53 H53           -1.6298    -5.8188     4.0496 H       
  54 H54            0.1637    -8.4633     1.2204 H       
  55 H55            1.1510    -0.3402    -3.0101 H       
  56 H56            2.2271    -4.3717    -3.8972 H       
  57 H57            0.7991    -4.3221    -5.8998 H       
  58 H58           -0.2833    -0.2737    -5.0078 H       
  59 H59            3.1042    -1.4111    -1.9617 H       
  60 H60            3.4425    -3.1341    -2.2531 H       
  61 H61           -1.3345    -0.2309    -6.4784 H       
  62 H62           -2.9357    -2.1669    -9.9231 H       
  63 H63           -1.6842    -4.2118    -9.3697 H       
  64 H64           -0.2475    -4.2773    -7.3739 H       
  65 H65           -2.7794     0.9413    -7.8328 H       
  66 H66           -1.4771     0.8992    -9.9426 H       
  67 H67           -2.7440    -0.0919   -10.7048 H       
  68 H68           -3.1004     1.5796   -10.2073 H       
  69 H69           -4.7872    -0.4981    -7.6197 H       
  70 H70           -5.0334     0.7636    -8.8508 H       
  71 H71           -4.6770    -0.9079    -9.3483 H       
@<TRIPOS>BOND
   1    1    2 ar
   2    1    6 ar
   3    1   44 1
   4    2    3 ar
   5    2   45 1
   6    3    4 ar
   7    3   15 1
   8    4    5 ar
   9    4   46 1
  10    5    6 ar
  11    5   47 1
  12    6    7 1
  13    7    8 1
  14    7   11 am
  15    8    9 1
  16    8   48 1
  17    8   49 1
  18    9   10 am
  19    9   12 2
  20   10   11 am
  21   10   50 1
  22   11   13 2
  23   11   14 2
  24   15   16 1
  25   15   17 1
  26   16   19 2
  27   16   51 1
  28   17   18 2
  29   17   35 1
  30   18   19 1
  31   19   20 1
  32   20   21 ar
  33   20   22 ar
  34   21   34 1
  35   21   25 ar
  36   22   23 ar
  37   22   52 1
  38   23   24 ar
  39   23   53 1
  40   24   25 ar
  41   24   33 1
  42   25   54 1
  43   26   27 ar
  44   26   28 ar
  45   26   35 1
  46   27   31 ar
  47   27   55 1
  48   28   29 ar
  49   28   56 1
  50   29   30 ar
  51   29   57 1
  52   30   31 ar
  53   30   32 1
  54   31   58 1
  55   32   36 ar
  56   32   40 ar
  57   35   59 1
  58   35   60 1
  59   36   37 ar
  60   36   61 1
  61   37   38 ar
  62   37   41 1
  63   38   39 ar
  64   38   62 1
  65   39   40 ar
  66   39   63 1
  67   40   64 1
  68   41   42 1
  69   41   43 1
  70   41   65 1
  71   42   66 1
  72   42   67 1
  73   42   68 1
  74   43   69 1
  75   43   70 1
  76   43   71 1

#	End of record

