#	Name: ASD07300846
#	Creating user name:	WinNT
#	Creation time:	15. 06. 2019 21:10

#	Modifying user name:	WinNT
#	Modification time:	15. 06. 2019 21:10

#	Program:	/corina/corina34_cracker 3.40 0067  02.08.2006

@<TRIPOS>MOLECULE
ASD07300846
  49   53    0    0    0
SMALL
NO_CHARGES


@<TRIPOS>ATOM
   1 N1            -0.3498     1.4273     0.1400 N.am    
   2 C2            -0.2028     0.0799     0.0776 C.2     
   3 N3             0.9576    -0.5055     0.0250 N.2     
   4 C4             2.1044     0.1922     0.0286 C.2     
   5 C5             2.0526     1.5937     0.0907 C.2     
   6 C6             0.7381     2.2328     0.1497 C.2     
   7 N7             3.4192    -0.1457    -0.0168 N.pl3   
   8 N8             4.1774     1.0314     0.0167 N.2     
   9 C9             3.3798     2.0617     0.0801 C.2     
  10 O10            0.6266     3.4448     0.2046 O.2     
  11 C11            3.9528    -1.5082    -0.0880 C.3     
  12 C12            4.7808    -1.6655    -1.3649 C.3     
  13 C13            5.3381    -3.0884    -1.4394 C.3     
  14 C14            6.2246    -3.3533    -0.2208 C.3     
  15 C15            5.3966    -3.1960     1.0561 C.3     
  16 C16            4.8393    -1.7731     1.1305 C.3     
  17 C17           -1.4415    -0.7784     0.0692 C.3     
  18 C18           -1.7149    -1.4786     1.4108 C.3     
  19 C19           -2.1265    -2.7138     0.5925 C.3     
  20 C20           -1.2168    -2.1785    -0.5260 C.3     
  21 C21           -1.7953    -2.3472    -1.9072 C.ar    
  22 C22           -3.1567    -2.2084    -2.0991 C.ar    
  23 C23           -3.6789    -2.3657    -3.3741 C.ar    
  24 C24           -2.8081    -2.6579    -4.4124 C.ar    
  25 C25           -1.4578    -2.7819    -4.1442 C.ar    
  26 N26           -0.9957    -2.6204    -2.9198 N.ar    
  27 F27            6.7342    -4.6544    -0.2889 F       
  28 F28            7.2827    -2.4383    -0.2061 F       
  29 H29           -1.2383     1.8152     0.1739 H       
  30 H30            3.6856     3.0968     0.1180 H       
  31 H31            3.1284    -2.2211    -0.0994 H       
  32 H32            4.1493    -1.4768    -2.2331 H       
  33 H33            5.6052    -0.9525    -1.3535 H       
  34 H34            4.5137    -3.8014    -1.4508 H       
  35 H35            5.9280    -3.2005    -2.3491 H       
  36 H36            4.5722    -3.9090     1.0447 H       
  37 H37            6.0281    -3.3848     1.9242 H       
  38 H38            5.6637    -1.0601     1.1420 H       
  39 H39            4.2494    -1.6610     2.0402 H       
  40 H40           -2.3107    -0.2631    -0.3396 H       
  41 H41           -0.8198    -1.6324     2.0134 H       
  42 H42           -2.5355    -1.0356     1.9752 H       
  43 H43           -1.7835    -3.6555     1.0210 H       
  44 H44           -3.1833    -2.7289     0.3261 H       
  45 H45           -0.1855    -2.5237    -0.4528 H       
  46 H46           -3.8059    -1.9807    -1.2666 H       
  47 H47           -4.7389    -2.2633    -3.5538 H       
  48 H48           -3.1800    -2.7873    -5.4180 H       
  49 H49           -0.7728    -3.0098    -4.9475 H       
@<TRIPOS>BOND
   1    1    2 1
   2    1    6 am
   3    1   29 1
   4    2    3 2
   5    2   17 1
   6    3    4 1
   7    4    5 2
   8    4    7 1
   9    5    6 1
  10    5    9 1
  11    6   10 2
  12    7    8 1
  13    7   11 1
  14    8    9 2
  15    9   30 1
  16   11   12 1
  17   11   16 1
  18   11   31 1
  19   12   13 1
  20   12   32 1
  21   12   33 1
  22   13   14 1
  23   13   34 1
  24   13   35 1
  25   14   15 1
  26   14   27 1
  27   14   28 1
  28   15   16 1
  29   15   36 1
  30   15   37 1
  31   16   38 1
  32   16   39 1
  33   17   18 1
  34   17   20 1
  35   17   40 1
  36   18   19 1
  37   18   41 1
  38   18   42 1
  39   19   20 1
  40   19   43 1
  41   19   44 1
  42   20   21 1
  43   20   45 1
  44   21   22 ar
  45   21   26 ar
  46   22   23 ar
  47   22   46 1
  48   23   24 ar
  49   23   47 1
  50   24   25 ar
  51   24   48 1
  52   25   26 ar
  53   25   49 1

#	End of record

