#	Name: ASD03090687
#	Creating user name:	WinNT
#	Creation time:	15. 06. 2019 20:29

#	Modifying user name:	WinNT
#	Modification time:	15. 06. 2019 20:29

#	Program:	/corina/corina34_cracker 3.40 0067  02.08.2006

@<TRIPOS>MOLECULE
ASD03090687
  32   33    0    0    0
SMALL
NO_CHARGES


@<TRIPOS>ATOM
   1 N1            -0.0162     1.3436     0.0094 N.am    
   2 C2            -1.0747     2.1772     0.0427 C.2     
   3 O3            -0.9015     3.3756     0.1523 O.2     
   4 N4            -2.3252     1.6823    -0.0456 N.am    
   5 S5            -5.0619     2.0729    -0.1118 S.3     
   6 C6            -3.4174     2.5425    -0.0113 C.2     
   7 N7            -3.3599     3.8351     0.1027 N.2     
   8 N8            -4.4503     4.4713     0.1181 N.2     
   9 C9            -5.5330     3.7679     0.0178 C.2     
  10 C10           -6.9424     4.3015     0.0122 C.3     
  11 F11           -6.9114     5.7002     0.0191 F       
  12 F12           -7.6054     3.8554    -1.1360 F       
  13 F13           -7.6186     3.8444     1.1485 F       
  14 C14            1.2798     1.8616    -0.0084 C.ar    
  15 C15            2.3665     0.9978     0.0667 C.ar    
  16 C16            3.6465     1.5218     0.0477 C.ar    
  17 C17            3.7966     2.9029    -0.0465 C.ar    
  18 C18            2.6675     3.7022    -0.1177 C.ar    
  19 N19            1.4607     3.1688    -0.1022 N.ar    
  20 O20            5.0368     3.4604    -0.0679 O.3     
  21 C21            5.1064     4.8844    -0.1663 C.3     
  22 C22            6.5719     5.3239    -0.1763 C.3     
  23 H23           -0.1550     0.3836     0.0020 H       
  24 H24           -2.4634     0.7262    -0.1331 H       
  25 H25            2.2132    -0.0688     0.1393 H       
  26 H26            4.5094     0.8748     0.1050 H       
  27 H27            2.7762     4.7742    -0.1910 H       
  28 H28            4.6234     5.2089    -1.0879 H       
  29 H29            4.5984     5.3328     0.6875 H       
  30 H30            7.0548     4.9993     0.7454 H       
  31 H31            7.0799     4.8755    -1.0301 H       
  32 H32            6.6249     6.4100    -0.2513 H       
@<TRIPOS>BOND
   1    1    2 am
   2    1   14 1
   3    1   23 1
   4    2    3 2
   5    2    4 am
   6    4    6 1
   7    4   24 1
   8    5    6 1
   9    5    9 1
  10    6    7 2
  11    7    8 1
  12    8    9 2
  13    9   10 1
  14   10   11 1
  15   10   12 1
  16   10   13 1
  17   14   15 ar
  18   14   19 ar
  19   15   16 ar
  20   15   25 1
  21   16   17 ar
  22   16   26 1
  23   17   18 ar
  24   17   20 1
  25   18   19 ar
  26   18   27 1
  27   20   21 1
  28   21   22 1
  29   21   28 1
  30   21   29 1
  31   22   30 1
  32   22   31 1
  33   22   32 1

#	End of record

