#	Name: ASD06170415
#	Creating user name:	WinNT
#	Creation time:	15. 06. 2019 21:05

#	Modifying user name:	WinNT
#	Modification time:	15. 06. 2019 21:05

#	Program:	/corina/corina34_cracker 3.40 0067  02.08.2006

@<TRIPOS>MOLECULE
ASD06170415
  58   61    0    0    0
SMALL
NO_CHARGES


@<TRIPOS>ATOM
   1 C1            -0.0163     1.3510     0.0095 C.2     
   2 C2             0.0021    -0.0041     0.0020 C.2     
   3 C3             1.2701     2.1287     0.0014 C.3     
   4 C4             2.4140     1.2425     0.4316 C.2     
   5 C5             2.2936    -0.0972     0.3950 C.2     
   6 O6             1.1567    -0.6877    -0.0181 O.3     
   7 C7             1.5334     2.6447    -1.3898 C.ar    
   8 C8             1.6707     1.7566    -2.4404 C.ar    
   9 C9             1.6317     4.0053    -1.6136 C.ar    
  10 C10            1.8738     4.4815    -2.8922 C.ar    
  11 C11            2.0176     3.5872    -3.9487 C.ar    
  12 C12            1.9123     2.2249    -3.7184 C.ar    
  13 O13            2.2553     4.0496    -5.2053 O.3     
  14 C14            2.3918     3.0741    -6.2405 C.3     
  15 O15            1.9703     5.8197    -3.1142 O.3     
  16 C16            1.8115     6.6781    -1.9828 C.3     
  17 C17            1.9493     8.1141    -2.4185 C.ar    
  18 C18            0.8339     8.8238    -2.8225 C.ar    
  19 C19            0.9603    10.1411    -3.2222 C.ar    
  20 C20            2.2019    10.7487    -3.2175 C.ar    
  21 C21            3.3171    10.0393    -2.8126 C.ar    
  22 C22            3.1901     8.7233    -2.4088 C.ar    
  23 C23            3.6015     1.8592     0.8704 C.2     
  24 C24            4.7768     1.0436     1.3363 C.3     
  25 C25            4.2644    -0.2871     1.8978 C.3     
  26 C26            3.4414    -0.9858     0.8140 C.3     
  27 C27           -1.2683     2.0459     0.0192 C.1     
  28 N28           -2.2616     2.5972     0.0268 N.1     
  29 N29           -1.1858    -0.6920     0.0157 N.pl3   
  30 C30            5.4505    -1.1696     2.2919 C.3     
  31 C31            3.3849    -0.0240     3.1218 C.3     
  32 O32            3.6781     3.0715     0.8733 O.2     
  33 H33            1.1875     2.9713     0.6879 H       
  34 H34            1.5892     0.6945    -2.2622 H       
  35 H35            1.5193     4.6973    -0.7920 H       
  36 H36            2.0239     1.5288    -4.5366 H       
  37 H37            2.5781     3.5757    -7.1902 H       
  38 H38            3.2269     2.4129    -6.0089 H       
  39 H39            1.4746     2.4895    -6.3122 H       
  40 H40            0.8250     6.5241    -1.5455 H       
  41 H41            2.5773     6.4481    -1.2419 H       
  42 H42           -0.1361     8.3491    -2.8261 H       
  43 H43            0.0890    10.6954    -3.5385 H       
  44 H44            2.3007    11.7777    -3.5304 H       
  45 H45            4.2872    10.5139    -2.8093 H       
  46 H46            4.0613     8.1691    -2.0925 H       
  47 H47            5.4447     0.8526     0.4963 H       
  48 H48            5.3124     1.5866     2.1150 H       
  49 H49            3.0492    -1.9246     1.2050 H       
  50 H50            4.0761    -1.1898    -0.0484 H       
  51 H51           -2.0264    -0.2082     0.0306 H       
  52 H52           -1.1846    -1.6620     0.0106 H       
  53 H53            6.0451    -0.6614     3.0511 H       
  54 H54            5.0831    -2.1151     2.6909 H       
  55 H55            6.0683    -1.3610     1.4145 H       
  56 H56            2.5371     0.5973     2.8333 H       
  57 H57            3.0220    -0.9720     3.5190 H       
  58 H58            3.9689     0.4900     3.8852 H       
@<TRIPOS>BOND
   1    1    2 2
   2    1    3 1
   3    1   27 1
   4    2   29 1
   5    2    6 1
   6    3    4 1
   7    3    7 1
   8    3   33 1
   9    4    5 2
  10    4   23 1
  11    5    6 1
  12    5   26 1
  13    7    8 ar
  14    7    9 ar
  15    8   12 ar
  16    8   34 1
  17    9   10 ar
  18    9   35 1
  19   10   11 ar
  20   10   15 1
  21   11   12 ar
  22   11   13 1
  23   12   36 1
  24   13   14 1
  25   14   37 1
  26   14   38 1
  27   14   39 1
  28   15   16 1
  29   16   17 1
  30   16   40 1
  31   16   41 1
  32   17   18 ar
  33   17   22 ar
  34   18   19 ar
  35   18   42 1
  36   19   20 ar
  37   19   43 1
  38   20   21 ar
  39   20   44 1
  40   21   22 ar
  41   21   45 1
  42   22   46 1
  43   23   24 1
  44   23   32 2
  45   24   25 1
  46   24   47 1
  47   24   48 1
  48   25   26 1
  49   25   30 1
  50   25   31 1
  51   26   49 1
  52   26   50 1
  53   27   28 3
  54   29   51 1
  55   29   52 1
  56   30   53 1
  57   30   54 1
  58   30   55 1
  59   31   56 1
  60   31   57 1
  61   31   58 1

#	End of record

