#	Name: ASD01120207
#	Creating user name:	WinNT
#	Creation time:	15. 06. 2019 18:59

#	Modifying user name:	WinNT
#	Modification time:	15. 06. 2019 18:59

#	Program:	/corina/corina34_cracker 3.40 0067  02.08.2006

@<TRIPOS>MOLECULE
ASD01120207
  32   34    0    0    0
SMALL
NO_CHARGES


@<TRIPOS>ATOM
   1 C1             0.2650     2.0662     0.7475 C.ar    
   2 C2             0.1444     0.6863     0.7955 C.ar    
   3 C3             1.2582    -0.1187     0.6624 C.ar    
   4 C4             2.5058     0.4538     0.4790 C.ar    
   5 C5             2.6324     1.8504     0.4293 C.ar    
   6 C6             1.4990     2.6522     0.5657 C.ar    
   7 O7             3.7521    -0.0484     0.3204 O.3     
   8 C8             4.6050     0.9815     0.1799 C.2     
   9 N9             3.9547     2.1153     0.2424 N.2     
  10 N10            5.9640     0.8608    -0.0023 N.am    
  11 S11            6.6786    -0.6318     0.0607 S.o2    
  12 O12            5.9137    -1.4789    -0.7857 O.2     
  13 O13            8.0728    -0.4167    -0.1097 O.2     
  14 C14            6.4661    -1.2429     1.6996 C.ar    
  15 C15            7.0560    -0.5862     2.7647 C.ar    
  16 C16            6.8888    -1.0659     4.0518 C.ar    
  17 C17            6.1321    -2.2006     4.2733 C.ar    
  18 C18            5.5415    -2.8573     3.2080 C.ar    
  19 C19            5.7052    -2.3753     1.9217 C.ar    
  20 Cl20           8.0067     0.8394     2.4864 Cl      
  21 Cl21           4.5909    -4.2830     3.4863 Cl      
  22 C22            1.6234     4.1532     0.5133 C.3     
  23 H23           -0.6138     2.6857     0.8486 H       
  24 H24           -0.8276     0.2376     0.9384 H       
  25 H25            1.1566    -1.1932     0.7016 H       
  26 H26            6.5032     1.6500    -0.1677 H       
  27 H27            7.3499    -0.5536     4.8832 H       
  28 H28            6.0018    -2.5752     5.2778 H       
  29 H29            5.2440    -2.8876     1.0903 H       
  30 H30            1.5140     4.4911    -0.5172 H       
  31 H31            0.8444     4.6040     1.1282 H       
  32 H32            2.6018     4.4501     0.8911 H       
@<TRIPOS>BOND
   1    1    2 ar
   2    1    6 ar
   3    1   23 1
   4    2    3 ar
   5    2   24 1
   6    3    4 ar
   7    3   25 1
   8    4    5 ar
   9    4    7 1
  10    5    6 ar
  11    5    9 1
  12    6   22 1
  13    7    8 1
  14    8    9 2
  15    8   10 1
  16   10   11 am
  17   10   26 1
  18   11   12 2
  19   11   13 2
  20   11   14 1
  21   14   15 ar
  22   14   19 ar
  23   15   16 ar
  24   15   20 1
  25   16   17 ar
  26   16   27 1
  27   17   18 ar
  28   17   28 1
  29   18   19 ar
  30   18   21 1
  31   19   29 1
  32   22   30 1
  33   22   31 1
  34   22   32 1

#	End of record

