#	Name: ASD02198681
#	Creating user name:	WinNT
#	Creation time:	15. 06. 2019 20:20

#	Modifying user name:	WinNT
#	Modification time:	15. 06. 2019 20:20

#	Program:	/corina/corina34_cracker 3.40 0067  02.08.2006

@<TRIPOS>MOLECULE
ASD02198681
  54   58    0    0    0
SMALL
NO_CHARGES


@<TRIPOS>ATOM
   1 C1            -0.0433     1.5016    -0.1148 C.2     
   2 C2            -0.0729     0.1620     0.0977 C.2     
   3 N3             1.0716    -0.5397     0.2600 N.pl3   
   4 N4             2.2361    -0.0049     0.2259 N.2     
   5 C5             2.4076     1.2845     0.0277 C.2     
   6 C6             1.2216     2.1357    -0.1604 C.2     
   7 C7             0.9803    -1.9175     0.4764 C.ar    
   8 C8             1.5829    -2.4884     1.5974 C.ar    
   9 C9             1.4917    -3.8522     1.8110 C.ar    
  10 C10            0.7976    -4.6522     0.9053 C.ar    
  11 C11            0.1967    -4.0767    -0.2141 C.ar    
  12 C12            0.2844    -2.7168    -0.4223 C.ar    
  13 C13            3.7645     1.8667    -0.0055 C.2     
  14 N14            4.3060     2.6068    -1.0188 N.pl3   
  15 N15            5.6082     2.9580    -0.6418 N.2     
  16 C16            5.8527     2.4581     0.5432 C.2     
  17 C17            4.7207     1.7710     0.9817 C.2     
  18 C18            3.6723     2.9519    -2.2193 C.ar    
  19 C19            3.8060     4.2351    -2.7329 C.ar    
  20 C20            3.1803     4.5721    -3.9171 C.ar    
  21 C21            2.4212     3.6332    -4.5913 C.ar    
  22 C22            2.2858     2.3546    -4.0823 C.ar    
  23 C23            2.9136     2.0098    -2.9015 C.ar    
  24 O24            1.3245     3.3387    -0.3483 O.2     
  25 C25            0.6984    -6.1144     1.1312 C.ar    
  26 N26            1.2726    -6.6560     2.1980 N.ar    
  27 C27           -0.0019    -6.9077     0.2247 C.ar    
  28 C28           -0.0863    -8.2710     0.4492 C.ar    
  29 C29            0.5332    -8.7967     1.5741 C.ar    
  30 C30            1.2074    -7.9502     2.4350 C.ar    
  31 C31            7.1418     2.6059     1.3097 C.3     
  32 O32            2.2595    -1.7057     2.4787 O.3     
  33 C33            2.8514    -2.3579     3.6040 C.3     
  34 H34           -0.9547     2.0651    -0.2494 H       
  35 H35           -1.0227    -0.3505     0.1380 H       
  36 H36            1.9578    -4.2962     2.6782 H       
  37 H37           -0.3412    -4.6964    -0.9162 H       
  38 H38           -0.1816    -2.2731    -1.2897 H       
  39 H39            4.6152     1.2517     1.9227 H       
  40 H40            4.3984     4.9690    -2.2066 H       
  41 H41            3.2836     5.5701    -4.3168 H       
  42 H42            1.9329     3.8992    -5.5172 H       
  43 H43            1.6920     1.6237    -4.6110 H       
  44 H44            2.8077     1.0109    -2.5046 H       
  45 H45           -0.4726    -6.4651    -0.6407 H       
  46 H46           -0.6225    -8.9112    -0.2356 H       
  47 H47            0.4854    -9.8562     1.7776 H       
  48 H48            1.6909    -8.3562     3.3113 H       
  49 H49            7.0945     3.5003     1.9310 H       
  50 H50            7.2904     1.7312     1.9428 H       
  51 H51            7.9727     2.6932     0.6097 H       
  52 H52            3.3592    -1.6204     4.2257 H       
  53 H53            2.0747    -2.8520     4.1876 H       
  54 H54            3.5719    -3.0986     3.2571 H       
@<TRIPOS>BOND
   1    1    2 2
   2    1    6 1
   3    1   34 1
   4    2    3 1
   5    2   35 1
   6    3    4 1
   7    3    7 1
   8    4    5 2
   9    5    6 1
  10    5   13 1
  11    6   24 2
  12    7    8 ar
  13    7   12 ar
  14    8    9 ar
  15    8   32 1
  16    9   10 ar
  17    9   36 1
  18   10   11 ar
  19   10   25 1
  20   11   12 ar
  21   11   37 1
  22   12   38 1
  23   13   14 1
  24   13   17 2
  25   14   15 1
  26   14   18 1
  27   15   16 2
  28   16   17 1
  29   16   31 1
  30   17   39 1
  31   18   19 ar
  32   18   23 ar
  33   19   20 ar
  34   19   40 1
  35   20   21 ar
  36   20   41 1
  37   21   22 ar
  38   21   42 1
  39   22   23 ar
  40   22   43 1
  41   23   44 1
  42   25   26 ar
  43   25   27 ar
  44   26   30 ar
  45   27   28 ar
  46   27   45 1
  47   28   29 ar
  48   28   46 1
  49   29   30 ar
  50   29   47 1
  51   30   48 1
  52   31   49 1
  53   31   50 1
  54   31   51 1
  55   32   33 1
  56   33   52 1
  57   33   53 1
  58   33   54 1

#	End of record

