#	Name: ASD01917299
#	Creating user name:	WinNT
#	Creation time:	15. 06. 2019 20:09

#	Modifying user name:	WinNT
#	Modification time:	15. 06. 2019 20:09

#	Program:	/corina/corina34_cracker 3.40 0067  02.08.2006

@<TRIPOS>MOLECULE
ASD01917299
  55   58    0    0    0
SMALL
NO_CHARGES


@<TRIPOS>ATOM
   1 C1            -0.0168     1.3905     0.0097 C.ar    
   2 C2             0.0021    -0.0041     0.0020 C.ar    
   3 C3             1.2193    -0.6609    -0.0132 C.ar    
   4 C4             2.3843     0.1015    -0.0203 C.ar    
   5 C5             2.2880     1.4904    -0.0119 C.ar    
   6 N6             1.1158     2.0836     0.0026 N.ar    
   7 C7            -1.3121     2.1049     0.0197 C.2     
   8 O8            -2.3527     1.4767     0.0212 O.2     
   9 N9            -1.3385     3.4524     0.0271 N.am    
  10 C10           -2.6213     4.1599     0.0370 C.3     
  11 C11           -3.4824     3.8028     1.2612 C.3     
  12 C12           -4.8865     4.3791     1.0684 C.3     
  13 C13           -4.8133     5.8873     0.8223 C.3     
  14 C14           -3.8949     6.1547    -0.3830 C.3     
  15 C15           -4.2843     5.1515    -1.4933 C.3     
  16 C16           -3.4686     3.8740    -1.2243 C.3     
  17 C17           -2.4700     5.7041     0.0341 C.3     
  18 C18           -5.1834     9.4847    -1.6953 C.ar    
  19 C19           -6.3979    10.0262    -2.1104 C.ar    
  20 C20           -6.4380    11.3465    -2.5299 C.ar    
  21 C21           -5.2614    12.0795    -2.5198 C.ar    
  22 C22           -4.0890    11.4762    -2.0940 C.ar    
  23 N23           -4.0793    10.2211    -1.7010 N.ar    
  24 C24           -5.1248     8.0766    -1.2380 C.2     
  25 O25           -6.1336     7.3992    -1.2260 O.2     
  26 N26           -3.9528     7.5470    -0.8352 N.am    
  27 C27           -2.8074    12.2690    -2.0812 C.3     
  28 O28            3.5997    -0.5023    -0.0347 O.3     
  29 C29            4.7471     0.3494    -0.0412 C.3     
  30 H30           -0.9216    -0.5638     0.0082 H       
  31 H31            1.2649    -1.7399    -0.0191 H       
  32 H32            3.1879     2.0875    -0.0169 H       
  33 H33           -0.5081     3.9537     0.0259 H       
  34 H34           -3.5436     2.7190     1.3604 H       
  35 H35           -3.0339     4.2278     2.1591 H       
  36 H36           -5.3601     3.8967     0.2134 H       
  37 H37           -5.4807     4.1879     1.9619 H       
  38 H38           -5.8116     6.2714     0.6124 H       
  39 H39           -4.4091     6.3818     1.7055 H       
  40 H40           -5.3509     4.9325    -1.4430 H       
  41 H41           -4.0306     5.5588    -2.4720 H       
  42 H42           -2.8179     3.6596    -2.0720 H       
  43 H43           -4.1382     3.0332    -1.0431 H       
  44 H44           -2.2183     6.0741     1.0280 H       
  45 H45           -1.7290     6.0228    -0.6991 H       
  46 H46           -7.2955     9.4256    -2.1056 H       
  47 H47           -7.3647    11.7939    -2.8577 H       
  48 H48           -5.2586    13.1106    -2.8410 H       
  49 H49           -3.1475     8.0877    -0.8447 H       
  50 H50           -2.6938    12.7603    -1.1149 H       
  51 H51           -1.9642    11.5992    -2.2497 H       
  52 H52           -2.8374    13.0208    -2.8698 H       
  53 H53            4.7243     0.9830    -0.9278 H       
  54 H54            4.7410     0.9740     0.8521 H       
  55 H55            5.6513    -0.2593    -0.0527 H       
@<TRIPOS>BOND
   1    1    2 ar
   2    1    6 ar
   3    1    7 1
   4    2    3 ar
   5    2   30 1
   6    3    4 ar
   7    3   31 1
   8    4    5 ar
   9    4   28 1
  10    5    6 ar
  11    5   32 1
  12    7    8 2
  13    7    9 am
  14    9   10 1
  15    9   33 1
  16   10   11 1
  17   10   16 1
  18   10   17 1
  19   11   12 1
  20   11   34 1
  21   11   35 1
  22   12   13 1
  23   12   36 1
  24   12   37 1
  25   13   14 1
  26   13   38 1
  27   13   39 1
  28   14   15 1
  29   14   17 1
  30   14   26 1
  31   15   16 1
  32   15   40 1
  33   15   41 1
  34   16   42 1
  35   16   43 1
  36   17   44 1
  37   17   45 1
  38   18   19 ar
  39   18   23 ar
  40   18   24 1
  41   19   20 ar
  42   19   46 1
  43   20   21 ar
  44   20   47 1
  45   21   22 ar
  46   21   48 1
  47   22   23 ar
  48   22   27 1
  49   24   25 2
  50   24   26 am
  51   26   49 1
  52   27   50 1
  53   27   51 1
  54   27   52 1
  55   28   29 1
  56   29   53 1
  57   29   54 1
  58   29   55 1

#	End of record

