#	Name: ASD00660016
#	Creating user name:	WinNT
#	Creation time:	15. 06. 2019 18:36

#	Modifying user name:	WinNT
#	Modification time:	15. 06. 2019 18:36

#	Program:	/corina/corina34_cracker 3.40 0067  02.08.2006

@<TRIPOS>MOLECULE
ASD00660016
  57   59    0    0    0
SMALL
NO_CHARGES


@<TRIPOS>ATOM
   1 C1             6.3586    -2.2105    -6.9557 C.ar    
   2 C2             5.8266    -3.3057    -6.2873 C.ar    
   3 C3             5.6841    -3.2954    -4.9185 C.ar    
   4 C4             6.0790    -2.1700    -4.1898 C.ar    
   5 C5             6.6201    -1.0573    -4.8735 C.ar    
   6 C6             6.7553    -1.0895    -6.2603 C.ar    
   7 N7             5.9552    -2.1195    -2.8426 N.2     
   8 C8             6.3251    -1.0643    -2.1596 C.2     
   9 N9             6.8564     0.0512    -2.7414 N.am    
  10 C10            7.0264     0.1124    -4.0824 C.2     
  11 C11            7.2450     1.1909    -1.9069 C.3     
  12 O12            7.4991     1.1002    -4.6139 O.2     
  13 S13            6.1272    -1.0852    -0.4089 S.3     
  14 C14            5.2588    -2.6608    -0.2096 C.3     
  15 C15            6.1912    -3.7948    -0.5498 C.2     
  16 N16            5.6923    -4.9761    -0.9646 N.am    
  17 O17            7.3905    -3.6444    -0.4503 O.2     
  18 C18            6.5886    -6.0910    -1.2999 C.3     
  19 C19            6.2534    -6.5860    -2.7104 C.3     
  20 C20            4.7645    -6.9323    -2.7847 C.3     
  21 C21            3.9329    -5.6790    -2.5024 C.3     
  22 C22            4.2415    -5.1754    -1.0842 C.3     
  23 C23            4.4381    -7.4518    -4.1612 C.2     
  24 N24            3.1771    -7.8221    -4.4601 N.am    
  25 O25            5.3100    -7.5369    -4.9998 O.2     
  26 C26            4.7887    -2.8043     1.2393 C.3     
  27 C27            3.7366    -1.7355     1.5423 C.3     
  28 C28            3.1737    -1.9579     2.9475 C.3     
  29 C29            2.1217    -0.8891     3.2505 C.3     
  30 H30            6.4665    -2.2399    -8.0299 H       
  31 H31            5.5205    -4.1760    -6.8487 H       
  32 H32            5.2687    -4.1528    -4.4098 H       
  33 H33            7.1682    -0.2413    -6.7862 H       
  34 H34            8.2842     1.0775    -1.5982 H       
  35 H35            7.1339     2.1132    -2.4770 H       
  36 H36            6.6060     1.2298    -1.0247 H       
  37 H37            4.3964    -2.6871    -0.8757 H       
  38 H38            7.6234    -5.7500    -1.2686 H       
  39 H39            6.4469    -6.9014    -0.5849 H       
  40 H40            6.4816    -5.8037    -3.4343 H       
  41 H41            6.8450    -7.4736    -2.9345 H       
  42 H42            4.5321    -7.6969    -2.0436 H       
  43 H43            4.1829    -4.9052    -3.2283 H       
  44 H44            2.8728    -5.9210    -2.5785 H       
  45 H45            3.9071    -5.9123    -0.3540 H       
  46 H46            3.7285    -4.2291    -0.9127 H       
  47 H47            2.4797    -7.7541    -3.7894 H       
  48 H48            2.9670    -8.1565    -5.3461 H       
  49 H49            4.3540    -3.7933     1.3840 H       
  50 H50            5.6379    -2.6788     1.9110 H       
  51 H51            4.1952    -0.7482     1.4867 H       
  52 H52            2.9296    -1.8029     0.8128 H       
  53 H53            2.7152    -2.9452     3.0031 H       
  54 H54            3.9807    -1.8905     3.6771 H       
  55 H55            2.5802     0.0981     3.1949 H       
  56 H56            1.3146    -0.9566     2.5210 H       
  57 H57            1.7206    -1.0476     4.2516 H       
@<TRIPOS>BOND
   1    1    2 ar
   2    1    6 ar
   3    1   30 1
   4    2    3 ar
   5    2   31 1
   6    3    4 ar
   7    3   32 1
   8    4    5 ar
   9    4    7 1
  10    5    6 ar
  11    5   10 1
  12    6   33 1
  13    7    8 2
  14    8    9 1
  15    8   13 1
  16    9   10 am
  17    9   11 1
  18   10   12 2
  19   11   34 1
  20   11   35 1
  21   11   36 1
  22   13   14 1
  23   14   15 1
  24   14   26 1
  25   14   37 1
  26   15   16 am
  27   15   17 2
  28   16   18 1
  29   16   22 1
  30   18   19 1
  31   18   38 1
  32   18   39 1
  33   19   20 1
  34   19   40 1
  35   19   41 1
  36   20   21 1
  37   20   23 1
  38   20   42 1
  39   21   22 1
  40   21   43 1
  41   21   44 1
  42   22   45 1
  43   22   46 1
  44   23   24 am
  45   23   25 2
  46   24   47 1
  47   24   48 1
  48   26   27 1
  49   26   49 1
  50   26   50 1
  51   27   28 1
  52   27   51 1
  53   27   52 1
  54   28   29 1
  55   28   53 1
  56   28   54 1
  57   29   55 1
  58   29   56 1
  59   29   57 1

#	End of record

