#	Name: ASD05143335
#	Creating user name:	WinNT
#	Creation time:	15. 06. 2019 20:57

#	Modifying user name:	WinNT
#	Modification time:	15. 06. 2019 20:57

#	Program:	/corina/corina34_cracker 3.40 0067  02.08.2006

@<TRIPOS>MOLECULE
ASD05143335
  47   50    0    0    0
SMALL
NO_CHARGES


@<TRIPOS>ATOM
   1 C1            -0.0163     1.3505     0.0095 C.2     
   2 N2            -0.0075     0.0138     0.2297 N.pl3   
   3 S3            -1.6347    -0.4750     0.1562 S.3     
   4 C4            -2.2491     1.1570    -0.1698 C.2     
   5 N5            -1.1574     1.9327    -0.1889 N.2     
   6 N6            -3.5119     1.5280    -0.3501 N.2     
   7 C7            -3.8103     2.8372    -0.5932 C.ar    
   8 C8            -4.7150     3.1758    -1.6044 C.ar    
   9 C9            -5.0117     4.5009    -1.8436 C.ar    
  10 C10            1.1073    -0.7955     0.4675 C.ar    
  11 C11            1.7134    -1.4781    -0.5864 C.ar    
  12 C12            1.6175    -0.9173     1.7525 C.ar    
  13 C13            2.7197    -1.7181     1.9847 C.ar    
  14 C14            3.3165    -2.3991     0.9398 C.ar    
  15 C15            2.8175    -2.2784    -0.3443 C.ar    
  16 C16            1.2404     2.1250     0.0016 C.ar    
  17 C17            2.4702     1.4687     0.0857 C.ar    
  18 C18            1.2062     3.5222    -0.0959 C.ar    
  19 C19            2.3925     4.2398    -0.1024 C.ar    
  20 C20            3.6019     3.5790    -0.0134 C.ar    
  21 C21            3.6402     2.1975     0.0779 C.ar    
  22 C22           -4.4164     5.4948    -1.0864 C.ar    
  23 C23           -3.5200     5.1677    -0.0838 C.ar    
  24 C24           -3.2174     3.8469     0.1714 C.ar    
  25 O25            1.2215    -1.3589    -1.8483 O.3     
  26 C26            1.8934    -2.0871    -2.8780 C.3     
  27 O27            0.0171     4.1703    -0.1842 O.3     
  28 C28            0.0605     5.5954    -0.2809 C.3     
  29 H29           -5.1798     2.4014    -2.1966 H       
  30 H30           -5.7102     4.7640    -2.6242 H       
  31 H31            1.1537    -0.3863     2.5705 H       
  32 H32            3.1162    -1.8119     2.9849 H       
  33 H33            4.1776    -3.0237     1.1264 H       
  34 H34            3.2861    -2.8122    -1.1579 H       
  35 H35            2.5045     0.3916     0.1570 H       
  36 H36            2.3707     5.3170    -0.1774 H       
  37 H37            4.5233     4.1424    -0.0191 H       
  38 H38            4.5906     1.6893     0.1471 H       
  39 H39           -4.6523     6.5310    -1.2790 H       
  40 H40           -3.0592     5.9489     0.5026 H       
  41 H41           -2.5179     3.5932     0.9542 H       
  42 H42            1.4007    -1.9043    -3.8329 H       
  43 H43            2.9315    -1.7601    -2.9362 H       
  44 H44            1.8603    -3.1526    -2.6502 H       
  45 H45           -0.9549     5.9863    -0.3451 H       
  46 H46            0.5523     6.0046     0.6016 H       
  47 H47            0.6174     5.8822    -1.1729 H       
@<TRIPOS>BOND
   1    1    2 1
   2    1   16 1
   3    1    5 2
   4    2    3 1
   5    2   10 1
   6    3    4 1
   7    4    5 1
   8    4    6 2
   9    6    7 1
  10    7    8 ar
  11    7   24 ar
  12    8    9 ar
  13    8   29 1
  14    9   22 ar
  15    9   30 1
  16   10   11 ar
  17   10   12 ar
  18   11   25 1
  19   11   15 ar
  20   12   13 ar
  21   12   31 1
  22   13   14 ar
  23   13   32 1
  24   14   15 ar
  25   14   33 1
  26   15   34 1
  27   16   17 ar
  28   16   18 ar
  29   17   21 ar
  30   17   35 1
  31   18   19 ar
  32   18   27 1
  33   19   20 ar
  34   19   36 1
  35   20   21 ar
  36   20   37 1
  37   21   38 1
  38   22   23 ar
  39   22   39 1
  40   23   24 ar
  41   23   40 1
  42   24   41 1
  43   25   26 1
  44   26   42 1
  45   26   43 1
  46   26   44 1
  47   27   28 1
  48   28   45 1
  49   28   46 1
  50   28   47 1

#	End of record

