#	Name: ASD01884342
#	Creating user name:	WinNT
#	Creation time:	15. 06. 2019 19:48

#	Modifying user name:	WinNT
#	Modification time:	15. 06. 2019 19:48

#	Program:	/corina/corina34_cracker 3.40 0067  02.08.2006

@<TRIPOS>MOLECULE
ASD01884342
  62   65    0    0    0
SMALL
NO_CHARGES


@<TRIPOS>ATOM
   1 C1            -0.6845     0.3900    -1.0812 C.2     
   2 C2             0.3290    -0.5833    -1.0776 C.2     
   3 C3             0.4411    -1.4471    -2.1828 C.2     
   4 C4            -0.4165    -1.3311    -3.2201 C.2     
   5 N5            -1.3968    -0.3906    -3.2250 N.am    
   6 C6            -1.5563     0.4592    -2.1935 C.2     
   7 O7            -2.4442     1.2945    -2.2222 O.2     
   8 C8            -2.3026    -0.3039    -4.3732 C.3     
   9 C9            -0.8359     1.2903     0.0221 C.1     
  10 N10           -0.9559     2.0045     0.8972 N.1     
  11 N11            0.8773    -1.4846     1.0505 N.3     
  12 C12            1.7659    -1.2199     2.1906 C.3     
  13 C13            1.3269    -2.0710     3.3845 C.3     
  14 N14            1.3642    -3.4916     3.0102 N.3     
  15 C15            0.4755    -3.7563     1.8700 C.3     
  16 C16            0.9145    -2.9052     0.6762 C.3     
  17 C17            1.0214    -4.3467     4.1544 C.3     
  18 C18           -3.4972    -1.1923    -4.1388 C.ar    
  19 N19            1.1960    -0.6894    -0.0135 N.pl3   
  20 C20            0.8293    -5.7648     3.6820 C.ar    
  21 C21            1.9036    -6.6342     3.6499 C.ar    
  22 C22            1.7274    -7.9349     3.2165 C.ar    
  23 C23            0.4768    -8.3665     2.8157 C.ar    
  24 C24           -0.5977    -7.4974     2.8486 C.ar    
  25 C25           -0.4223    -6.1979     3.2861 C.ar    
  26 C26           -4.6196    -0.6876    -3.5087 C.ar    
  27 C27           -5.7159    -1.5000    -3.2927 C.ar    
  28 C28           -5.6899    -2.8232    -3.7087 C.ar    
  29 C29           -4.5625    -3.3272    -4.3408 C.ar    
  30 C30           -3.4709    -2.5092    -4.5594 C.ar    
  31 C31            2.4604     0.0504    -0.0222 C.3     
  32 O32           -6.7669    -3.6245    -3.4970 O.3     
  33 C33           -6.6697    -4.9757    -3.9518 C.3     
  34 F34           -5.5990    -5.6078    -3.3103 F       
  35 F35           -7.8568    -5.6541    -3.6557 F       
  36 F36           -6.4578    -4.9882    -5.3346 F       
  37 H37            1.2127    -2.2025    -2.2019 H       
  38 H38           -0.3205    -1.9994    -4.0630 H       
  39 H39           -2.6351     0.7268    -4.4966 H       
  40 H40           -1.7802    -0.6275    -5.2734 H       
  41 H41            2.7906    -1.4745     1.9198 H       
  42 H42            1.7114    -0.1643     2.4569 H       
  43 H43            2.0023    -1.8980     4.2224 H       
  44 H44            0.3120    -1.7973     3.6726 H       
  45 H45            0.5301    -4.8119     1.6038 H       
  46 H46           -0.5492    -3.5018     2.1409 H       
  47 H47            0.2392    -3.0783    -0.1617 H       
  48 H48            1.9295    -3.1789     0.3881 H       
  49 H49            1.8279    -4.3139     4.8869 H       
  50 H50            0.0996    -3.9884     4.6125 H       
  51 H51            2.8807    -6.2970     3.9631 H       
  52 H52            2.5669    -8.6139     3.1908 H       
  53 H53            0.3393    -9.3826     2.4764 H       
  54 H54           -1.5746    -7.8345     2.5351 H       
  55 H55           -1.2618    -5.5189     3.3119 H       
  56 H56           -4.6392     0.3424    -3.1847 H       
  57 H57           -6.5923    -1.1054    -2.8002 H       
  58 H58           -4.5398    -4.3570    -4.6655 H       
  59 H59           -2.5930    -2.9011    -5.0514 H       
  60 H60            2.6941     0.3825     0.9893 H       
  61 H61            3.2581    -0.5977    -0.3852 H       
  62 H62            2.3699     0.9169    -0.6773 H       
@<TRIPOS>BOND
   1    1    2 2
   2    1    9 1
   3    1    6 1
   4    2    3 1
   5    2   19 1
   6    3    4 2
   7    3   37 1
   8    4    5 1
   9    4   38 1
  10    5    6 am
  11    5    8 1
  12    6    7 2
  13    8   18 1
  14    8   39 1
  15    8   40 1
  16    9   10 3
  17   11   12 1
  18   11   16 1
  19   11   19 1
  20   12   13 1
  21   12   41 1
  22   12   42 1
  23   13   14 1
  24   13   43 1
  25   13   44 1
  26   14   15 1
  27   14   17 1
  28   15   16 1
  29   15   45 1
  30   15   46 1
  31   16   47 1
  32   16   48 1
  33   17   20 1
  34   17   49 1
  35   17   50 1
  36   18   26 ar
  37   18   30 ar
  38   19   31 1
  39   20   21 ar
  40   20   25 ar
  41   21   22 ar
  42   21   51 1
  43   22   23 ar
  44   22   52 1
  45   23   24 ar
  46   23   53 1
  47   24   25 ar
  48   24   54 1
  49   25   55 1
  50   26   27 ar
  51   26   56 1
  52   27   28 ar
  53   27   57 1
  54   28   32 1
  55   28   29 ar
  56   29   30 ar
  57   29   58 1
  58   30   59 1
  59   31   60 1
  60   31   61 1
  61   31   62 1
  62   32   33 1
  63   33   34 1
  64   33   35 1
  65   33   36 1

#	End of record

