#	Name: ASD03331772
#	Creating user name:	WinNT
#	Creation time:	15. 06. 2019 20:39

#	Modifying user name:	WinNT
#	Modification time:	15. 06. 2019 20:39

#	Program:	/corina/corina34_cracker 3.40 0067  02.08.2006

@<TRIPOS>MOLECULE
ASD03331772
  51   54    0    0    0
SMALL
NO_CHARGES


@<TRIPOS>ATOM
   1 C1             0.7696     1.3750     0.1235 C.ar    
   2 C2             0.3891     0.0471     0.0774 C.ar    
   3 C3             1.3436    -0.9492     0.1631 C.ar    
   4 C4             2.6793    -0.6180     0.2951 C.ar    
   5 C5             3.0611     0.7096     0.3409 C.ar    
   6 C6             2.1062     1.7071     0.2551 C.ar    
   7 Cl7            2.5851     3.3747     0.3120 Cl      
   8 C8             0.9280    -2.3969     0.1132 C.3     
   9 C9             0.9263    -2.8700    -1.3176 C.2     
  10 N10            0.5845    -4.1413    -1.6065 N.am    
  11 O11            1.2325    -2.1068    -2.2090 O.2     
  12 C12            0.4849    -4.5532    -2.9402 C.ar    
  13 C13            0.8218    -5.8512    -3.2922 C.ar    
  14 C14            0.7211    -6.2565    -4.6205 C.ar    
  15 C15            0.2825    -5.3554    -5.5887 C.ar    
  16 C16           -0.0507    -4.0641    -5.2303 C.ar    
  17 C17            0.0430    -3.6629    -3.9115 C.ar    
  18 C18            1.0805    -7.6443    -5.0042 C.ar    
  19 C19            1.5195    -8.5453    -4.0360 C.ar    
  20 C20            1.8536    -9.8363    -4.3943 C.ar    
  21 C21            1.7542   -10.2397    -5.7120 C.ar    
  22 C22            1.3171    -9.3478    -6.6845 C.ar    
  23 C23            0.9743    -8.0512    -6.3315 C.ar    
  24 N24            1.2186    -9.7588    -8.0159 N.3     
  25 C25            1.5747    -8.6624    -8.9351 C.3     
  26 C26            2.7271    -9.1698    -9.8273 C.3     
  27 C27            2.5773   -10.7119    -9.7482 C.3     
  28 C28            2.1116   -10.9063    -8.2837 C.3     
  29 H29            0.0242     2.1532     0.0524 H       
  30 H30           -0.6543    -0.2123    -0.0253 H       
  31 H31            3.4245    -1.3968     0.3627 H       
  32 H32            4.1046     0.9682     0.4439 H       
  33 H33            1.6294    -2.9965     0.6934 H       
  34 H34           -0.0729    -2.5022     0.5319 H       
  35 H35            0.4076    -4.7708    -0.8900 H       
  36 H36            1.1615    -6.5459    -2.5383 H       
  37 H37            0.2034    -5.6669    -6.6198 H       
  38 H38           -0.3901    -3.3672    -5.9824 H       
  39 H39           -0.2188    -2.6519    -3.6362 H       
  40 H40            1.5989    -8.2335    -3.0050 H       
  41 H41            2.1940   -10.5328    -3.6423 H       
  42 H42            2.0170   -11.2505    -5.9872 H       
  43 H43            0.6342    -7.3566    -7.0854 H       
  44 H44            0.7149    -8.4019    -9.5524 H       
  45 H45            1.9022    -7.7926    -8.3655 H       
  46 H46            2.6020    -8.8226   -10.8529 H       
  47 H47            3.6912    -8.8552    -9.4277 H       
  48 H48            1.8215   -11.0673   -10.4487 H       
  49 H49            3.5328   -11.2065    -9.9230 H       
  50 H50            2.9667   -10.8875    -7.6079 H       
  51 H51            1.5658   -11.8441    -8.1803 H       
@<TRIPOS>BOND
   1    1    2 ar
   2    1    6 ar
   3    1   29 1
   4    2    3 ar
   5    2   30 1
   6    3    4 ar
   7    3    8 1
   8    4    5 ar
   9    4   31 1
  10    5    6 ar
  11    5   32 1
  12    6    7 1
  13    8    9 1
  14    8   33 1
  15    8   34 1
  16    9   10 am
  17    9   11 2
  18   10   12 1
  19   10   35 1
  20   12   13 ar
  21   12   17 ar
  22   13   14 ar
  23   13   36 1
  24   14   15 ar
  25   14   18 1
  26   15   16 ar
  27   15   37 1
  28   16   17 ar
  29   16   38 1
  30   17   39 1
  31   18   19 ar
  32   18   23 ar
  33   19   20 ar
  34   19   40 1
  35   20   21 ar
  36   20   41 1
  37   21   22 ar
  38   21   42 1
  39   22   23 ar
  40   22   24 1
  41   23   43 1
  42   24   25 1
  43   24   28 1
  44   25   26 1
  45   25   44 1
  46   25   45 1
  47   26   27 1
  48   26   46 1
  49   26   47 1
  50   27   28 1
  51   27   48 1
  52   27   49 1
  53   28   50 1
  54   28   51 1

#	End of record

