#	Name: ASD01914327
#	Creating user name:	WinNT
#	Creation time:	15. 06. 2019 20:03

#	Modifying user name:	WinNT
#	Modification time:	15. 06. 2019 20:03

#	Program:	/corina/corina34_cracker 3.40 0067  02.08.2006

@<TRIPOS>MOLECULE
ASD01914327
  47   50    0    0    0
SMALL
NO_CHARGES


@<TRIPOS>ATOM
   1 C1             0.0035     1.2698     0.0016 C.2     
   2 N2             0.0086    -0.0403     0.0097 N.2     
   3 N3            -1.3174    -0.4814     0.0164 N.pl3   
   4 C4            -2.1156     0.6111     0.0197 C.2     
   5 C5            -1.3284     1.7034     0.0122 C.2     
   6 C6            -3.6248     0.5551     0.0407 C.3     
   7 N7            -4.0077    -0.8473    -0.2085 N.am    
   8 C8            -5.0203    -1.1526    -1.0440 C.2     
   9 O9            -5.2514    -2.3138    -1.3201 O.2     
  10 C10           -5.8492    -0.0763    -1.6242 C.ar    
  11 C11           -6.3484    -0.1990    -2.9227 C.ar    
  12 C12            1.2212     2.1576    -0.0105 C.3     
  13 O13            0.8123     3.5268    -0.0162 O.3     
  14 C14            1.7960     4.4644    -0.0272 C.ar    
  15 C15            1.4705     5.8130    -0.0333 C.ar    
  16 C16            2.4723     6.7641    -0.0446 C.ar    
  17 C17            3.7985     6.3730    -0.0498 C.ar    
  18 C18            4.1255     5.0296    -0.0443 C.ar    
  19 C19            3.1275     4.0746    -0.0268 C.ar    
  20 C20           -1.7927    -1.8677     0.0138 C.3     
  21 C21           -3.2513    -1.9025     0.4827 C.3     
  22 C22           -6.1411     1.0649    -0.8742 C.ar    
  23 C23           -6.9150     2.0662    -1.4204 C.ar    
  24 C24           -7.4037     1.9416    -2.7120 C.ar    
  25 C25           -7.1213     0.8083    -3.4592 C.ar    
  26 F26           -8.1625     2.9256    -3.2424 F       
  27 C27           -0.9312    -2.7051     0.9612 C.3     
  28 H28           -1.6638     2.7300     0.0090 H       
  29 H29           -3.9952     0.8742     1.0149 H       
  30 H30           -4.0317     1.1963    -0.7412 H       
  31 H31           -6.1290    -1.0814    -3.5055 H       
  32 H32            1.8225     1.9616     0.8772 H       
  33 H33            1.8124     1.9512    -0.9027 H       
  34 H34            0.4348     6.1190    -0.0295 H       
  35 H35            2.2195     7.8141    -0.0496 H       
  36 H36            4.5803     7.1181    -0.0587 H       
  37 H37            5.1622     4.7266    -0.0492 H       
  38 H38            3.3834     3.0254    -0.0224 H       
  39 H39           -1.7251    -2.2738    -0.9955 H       
  40 H40           -3.2918    -1.7340     1.5589 H       
  41 H41           -3.6857    -2.8745     0.2491 H       
  42 H42           -5.7615     1.1626     0.1322 H       
  43 H43           -7.1414     2.9492    -0.8413 H       
  44 H44           -7.5042     0.7164    -4.4649 H       
  45 H45           -1.0013    -2.2992     1.9704 H       
  46 H46           -1.2852    -3.7360     0.9587 H       
  47 H47            0.1067    -2.6765     0.6294 H       
@<TRIPOS>BOND
   1    1    2 2
   2    1   12 1
   3    1    5 1
   4    2    3 1
   5    3    4 1
   6    3   20 1
   7    4    5 2
   8    4    6 1
   9    5   28 1
  10    6    7 1
  11    6   29 1
  12    6   30 1
  13    7    8 am
  14    7   21 1
  15    8    9 2
  16    8   10 1
  17   10   11 ar
  18   10   22 ar
  19   11   25 ar
  20   11   31 1
  21   12   13 1
  22   12   32 1
  23   12   33 1
  24   13   14 1
  25   14   15 ar
  26   14   19 ar
  27   15   16 ar
  28   15   34 1
  29   16   17 ar
  30   16   35 1
  31   17   18 ar
  32   17   36 1
  33   18   19 ar
  34   18   37 1
  35   19   38 1
  36   20   21 1
  37   20   27 1
  38   20   39 1
  39   21   40 1
  40   21   41 1
  41   22   23 ar
  42   22   42 1
  43   23   24 ar
  44   23   43 1
  45   24   25 ar
  46   24   26 1
  47   25   44 1
  48   27   45 1
  49   27   46 1
  50   27   47 1

#	End of record

