#	Name: ASD09090001
#	Creating user name:	WinNT
#	Creation time:	15. 06. 2019 21:20

#	Modifying user name:	WinNT
#	Modification time:	15. 06. 2019 21:20

#	Program:	/corina/corina34_cracker 3.40 0067  02.08.2006

@<TRIPOS>MOLECULE
ASD09090001
  35   38    0    0    0
SMALL
NO_CHARGES


@<TRIPOS>ATOM
   1 O1            -0.0173     1.4248     0.0099 O.3     
   2 C2             0.0021    -0.0041     0.0020 C.3     
   3 C3            -1.4260    -0.5647     0.0126 C.3     
   4 O4            -2.4289     0.3511    -0.4373 O.3     
   5 P5            -3.9810    -0.0729    -0.1646 P.3     
   6 O6            -4.8418     1.1311    -0.1664 O.2     
   7 O7            -4.4766    -1.1044    -1.2971 O.3     
   8 O8            -4.0251    -0.7841     1.2940 O.3     
   9 C9            -2.9061    -1.5818     1.7500 C.3     
  10 C10           -1.6592    -0.7465     1.5371 C.3     
  11 O11           -0.4291    -1.3110     1.9838 O.3     
  12 C12            0.6089    -0.5497     1.3191 C.3     
  13 N13            1.7505    -1.4178     1.0203 N.pl3   
  14 C14            1.7181    -2.7753     0.8830 C.2     
  15 N15            2.9118    -3.2204     0.6194 N.2     
  16 C16            3.7785    -2.1796     0.5719 C.2     
  17 C17            3.0434    -1.0152     0.8220 C.2     
  18 N18            3.6633     0.1706     0.8333 N.2     
  19 C19            4.9557     0.2636     0.6128 C.2     
  20 N20            5.5480     1.5013     0.6348 N.pl3   
  21 N21            5.7248    -0.8338     0.3635 N.am    
  22 C22            5.1678    -2.0647     0.3318 C.2     
  23 O23            5.8472    -3.0524     0.1097 O.2     
  24 H24            0.8606     1.8301     0.0037 H       
  25 H25            0.5544    -0.3751    -0.8614 H       
  26 H26           -1.4838    -1.5092    -0.5284 H       
  27 H27           -5.3928    -1.3949    -1.1907 H       
  28 H28           -3.0218    -1.8158     2.8083 H       
  29 H29           -2.8424    -2.5016     1.1686 H       
  30 H30           -1.7898     0.2295     2.0044 H       
  31 H31            0.9252     0.2787     1.9531 H       
  32 H32            0.8340    -3.3882     0.9792 H       
  33 H33            5.0138     2.2915     0.8111 H       
  34 H34            6.5008     1.5859     0.4739 H       
  35 H35            6.6761    -0.7304     0.2046 H       
@<TRIPOS>BOND
   1    1    2 1
   2    1   24 1
   3    2    3 1
   4    2   12 1
   5    2   25 1
   6    3    4 1
   7    3   10 1
   8    3   26 1
   9    4    5 1
  10    5    6 2
  11    5    7 1
  12    5    8 1
  13    7   27 1
  14    8    9 1
  15    9   10 1
  16    9   28 1
  17    9   29 1
  18   10   11 1
  19   10   30 1
  20   11   12 1
  21   12   13 1
  22   12   31 1
  23   13   14 1
  24   13   17 1
  25   14   15 2
  26   14   32 1
  27   15   16 1
  28   16   17 2
  29   16   22 1
  30   17   18 1
  31   18   19 2
  32   19   20 1
  33   19   21 1
  34   20   33 1
  35   20   34 1
  36   21   22 am
  37   21   35 1
  38   22   23 2

#	End of record

