#	Name: ASD01230416
#	Creating user name:	WinNT
#	Creation time:	15. 06. 2019 19:14

#	Modifying user name:	WinNT
#	Modification time:	15. 06. 2019 19:14

#	Program:	/corina/corina34_cracker 3.40 0067  02.08.2006

@<TRIPOS>MOLECULE
ASD01230416
  42   44    0    0    0
SMALL
NO_CHARGES


@<TRIPOS>ATOM
   1 C1            -0.3090     0.2585    -0.8215 C.ar    
   2 C2            -0.4889    -0.1857     0.4986 C.ar    
   3 N3             0.6007     1.1856    -1.0836 N.ar    
   4 N4             0.2544     0.3274     1.4717 N.ar    
   5 C5             1.1581     1.2517     1.1953 C.ar    
   6 C6             1.3346     1.6884    -0.1039 C.ar    
   7 N7            -1.0766    -0.2752    -1.8476 N.pl3   
   8 C8             1.9996     1.8323     2.3024 C.3     
   9 C9            -1.5034    -1.2216     0.8040 C.ar    
  10 C10           -1.6458    -2.3284    -0.0326 C.ar    
  11 C11           -2.5908    -3.2904     0.2543 C.ar    
  12 C12           -3.4002    -3.1584     1.3748 C.ar    
  13 C13           -3.2610    -2.0577     2.2099 C.ar    
  14 C14           -2.3140    -1.0949     1.9318 C.ar    
  15 O15           -4.3307    -4.1079     1.6545 O.3     
  16 C16           -4.3411    -5.2706     0.8239 C.3     
  17 C17           -4.9815    -6.4343     1.5834 C.3     
  18 C18           -4.9926    -7.6792     0.6940 C.3     
  19 C19           -5.7989    -7.3927    -0.5743 C.3     
  20 C20           -5.1585    -6.2291    -1.3338 C.3     
  21 C21           -5.1474    -4.9841    -0.4444 C.3     
  22 H22            2.0755     2.4437    -0.3208 H       
  23 H23           -1.8169    -0.8673    -1.6419 H       
  24 H24           -0.8727    -0.0560    -2.7702 H       
  25 H25            2.9065     1.2389     2.4188 H       
  26 H26            2.2669     2.8597     2.0550 H       
  27 H27            1.4341     1.8183     3.2341 H       
  28 H28           -1.0169    -2.4316    -0.9045 H       
  29 H29           -2.7019    -4.1476    -0.3933 H       
  30 H30           -3.8921    -1.9579     3.0806 H       
  31 H31           -2.2029    -0.2415     2.5843 H       
  32 H32           -3.3184    -5.5326     0.5528 H       
  33 H33           -4.4070    -6.6384     2.4869 H       
  34 H34           -6.0042    -6.1723     1.8544 H       
  35 H35           -3.9699    -7.9412     0.4229 H       
  36 H36           -5.4488    -8.5082     1.2351 H       
  37 H37           -5.8068    -8.2796    -1.2079 H       
  38 H38           -6.8216    -7.1307    -0.3033 H       
  39 H39           -4.1358    -6.4911    -1.6049 H       
  40 H40           -5.7330    -6.0249    -2.2374 H       
  41 H41           -6.1702    -4.7221    -0.1734 H       
  42 H42           -4.6912    -4.1551    -0.9855 H       
@<TRIPOS>BOND
   1    1    2 ar
   2    1    3 ar
   3    1    7 1
   4    2    4 ar
   5    2    9 1
   6    3    6 ar
   7    4    5 ar
   8    5    6 ar
   9    5    8 1
  10    6   22 1
  11    7   23 1
  12    7   24 1
  13    8   25 1
  14    8   26 1
  15    8   27 1
  16    9   10 ar
  17    9   14 ar
  18   10   11 ar
  19   10   28 1
  20   11   12 ar
  21   11   29 1
  22   12   13 ar
  23   12   15 1
  24   13   14 ar
  25   13   30 1
  26   14   31 1
  27   15   16 1
  28   16   17 1
  29   16   21 1
  30   16   32 1
  31   17   18 1
  32   17   33 1
  33   17   34 1
  34   18   19 1
  35   18   35 1
  36   18   36 1
  37   19   20 1
  38   19   37 1
  39   19   38 1
  40   20   21 1
  41   20   39 1
  42   20   40 1
  43   21   41 1
  44   21   42 1

#	End of record

