#	Name: ASD05940011
#	Creating user name:	WinNT
#	Creation time:	15. 06. 2019 21:04

#	Modifying user name:	WinNT
#	Modification time:	15. 06. 2019 21:04

#	Program:	/corina/corina34_cracker 3.40 0067  02.08.2006

@<TRIPOS>MOLECULE
ASD05940011
  48   51    0    0    0
SMALL
NO_CHARGES


@<TRIPOS>ATOM
   1 N1            -0.0159     1.3181     0.0093 N.ar    
   2 C2             0.0021    -0.0041     0.0020 C.ar    
   3 N3             1.1319    -0.6930    -0.0101 N.ar    
   4 C4             2.3066    -0.0681    -0.0158 C.ar    
   5 C5             2.3274     1.3257    -0.0126 C.ar    
   6 C6             1.1197     2.0168     0.0022 C.ar    
   7 N7             3.4912    -0.7843    -0.0194 N.3     
   8 C8             4.5325    -0.1239    -0.8126 C.3     
   9 C9             4.6626     1.3202    -0.4024 C.2     
  10 N10            3.5574     2.0048    -0.0283 N.am    
  11 N11            1.0976     3.4049     0.0085 N.pl3   
  12 O12           -1.1750    -0.6756     0.0076 O.3     
  13 C13            3.2722    -2.1617    -0.4807 C.3     
  14 O14            5.7473     1.8634    -0.4080 O.2     
  15 C15            4.6022    -2.8335    -0.7061 C.ar    
  16 C16            5.2124    -3.5217     0.3255 C.ar    
  17 C17            6.4327    -4.1380     0.1188 C.ar    
  18 C18            7.0420    -4.0662    -1.1197 C.ar    
  19 C19            6.4312    -3.3785    -2.1519 C.ar    
  20 C20            5.2093    -2.7662    -1.9464 C.ar    
  21 N21            6.6614    -4.4341    -4.3286 N.3     
  22 C22            7.0982    -4.2669    -5.7268 C.3     
  23 C23            7.9365    -5.5089    -6.0956 C.3     
  24 C24            7.4539    -6.5721    -5.0740 C.3     
  25 C25            7.2102    -5.7063    -3.8128 C.3     
  26 C26            7.0958    -3.2999    -3.5021 C.3     
  27 H27            5.4840    -0.6315    -0.6537 H       
  28 H28            4.2697    -0.1768    -1.8692 H       
  29 H29            3.6126     2.9403     0.2223 H       
  30 H30            1.9298     3.9032     0.0026 H       
  31 H31            0.2500     3.8765     0.0188 H       
  32 H32           -1.5236    -0.8657    -0.8742 H       
  33 H33            2.7102    -2.7125     0.2736 H       
  34 H34            2.7096    -2.1471    -1.4142 H       
  35 H35            4.7363    -3.5778     1.2933 H       
  36 H36            6.9099    -4.6751     0.9251 H       
  37 H37            7.9956    -4.5470    -1.2811 H       
  38 H38            4.7321    -2.2290    -2.7527 H       
  39 H39            6.2291    -4.1985    -6.3812 H       
  40 H40            7.7070    -3.3675    -5.8201 H       
  41 H41            7.7228    -5.8293    -7.1153 H       
  42 H42            9.0002    -5.3075    -5.9687 H       
  43 H43            6.5299    -7.0437    -5.4084 H       
  44 H44            8.2275    -7.3181    -4.8920 H       
  45 H45            8.1484    -5.5294    -3.2869 H       
  46 H46            6.4901    -6.1906    -3.1534 H       
  47 H47            6.8167    -2.3664    -3.9907 H       
  48 H48            8.1780    -3.3350    -3.3770 H       
@<TRIPOS>BOND
   1    1    2 ar
   2    1    6 ar
   3    2    3 ar
   4    2   12 1
   5    3    4 ar
   6    4    5 ar
   7    4    7 1
   8    5    6 ar
   9    5   10 1
  10    6   11 1
  11    7    8 1
  12    7   13 1
  13    8    9 1
  14    8   27 1
  15    8   28 1
  16    9   10 am
  17    9   14 2
  18   10   29 1
  19   11   30 1
  20   11   31 1
  21   12   32 1
  22   13   15 1
  23   13   33 1
  24   13   34 1
  25   15   16 ar
  26   15   20 ar
  27   16   17 ar
  28   16   35 1
  29   17   18 ar
  30   17   36 1
  31   18   19 ar
  32   18   37 1
  33   19   20 ar
  34   19   26 1
  35   20   38 1
  36   21   22 1
  37   21   26 1
  38   21   25 1
  39   22   23 1
  40   22   39 1
  41   22   40 1
  42   23   24 1
  43   23   41 1
  44   23   42 1
  45   24   25 1
  46   24   43 1
  47   24   44 1
  48   25   45 1
  49   25   46 1
  50   26   47 1
  51   26   48 1

#	End of record

