#	Name: ASD05143284
#	Creating user name:	WinNT
#	Creation time:	15. 06. 2019 20:57

#	Modifying user name:	WinNT
#	Modification time:	15. 06. 2019 20:57

#	Program:	/corina/corina34_cracker 3.40 0067  02.08.2006

@<TRIPOS>MOLECULE
ASD05143284
  49   51    0    0    0
SMALL
NO_CHARGES


@<TRIPOS>ATOM
   1 C1            -0.2529     1.4614     0.0988 C.2     
   2 N2            -0.0134     0.2085    -0.2333 N.2     
   3 S3            -1.5335    -0.5476    -0.3040 S.3     
   4 C4            -2.4174     0.8688     0.1192 C.2     
   5 N5            -1.5116     1.8065     0.2891 N.2     
   6 N6            -3.7876     0.9921     0.2568 N.pl3   
   7 C7            -4.3380     2.1848     0.7411 C.ar    
   8 C8            -5.6375     2.5384     0.4019 C.ar    
   9 C9            -6.1798     3.7147     0.8804 C.ar    
  10 C10           -5.4270     4.5431     1.6997 C.ar    
  11 C11           -4.1288     4.1909     2.0387 C.ar    
  12 C12           -3.5869     3.0121     1.5657 C.ar    
  13 C13            1.2097    -0.3660    -0.4727 C.ar    
  14 C14            1.6175    -1.4776     0.2665 C.ar    
  15 C15            2.0469     0.1563    -1.4600 C.ar    
  16 C16            3.2749    -0.4242    -1.6978 C.ar    
  17 C17            3.6788    -1.5267    -0.9571 C.ar    
  18 C18            2.8471    -2.0521     0.0225 C.ar    
  19 C19            0.8474     2.4405     0.2580 C.ar    
  20 C20            0.6414     3.7828    -0.0593 C.ar    
  21 C21            2.0916     2.0246     0.7312 C.ar    
  22 C22            3.1126     2.9412     0.8773 C.ar    
  23 C23            2.9038     4.2705     0.5558 C.ar    
  24 C24            1.6702     4.6901     0.0910 C.ar    
  25 O25            4.8896    -2.0965    -1.1952 O.3     
  26 C26            5.2424    -3.2280    -0.3969 C.3     
  27 O27           -5.9618     5.7014     2.1705 O.3     
  28 C28           -5.1304     6.5062     3.0090 C.3     
  29 H29           -4.3675     0.2522     0.0178 H       
  30 H30           -6.2236     1.8937    -0.2363 H       
  31 H31           -7.1902     3.9900     0.6164 H       
  32 H32           -3.5432     4.8368     2.6761 H       
  33 H33           -2.5762     2.7380     1.8297 H       
  34 H34            0.9711    -1.8870     1.0287 H       
  35 H35            1.7332     1.0135    -2.0372 H       
  36 H36            3.9232    -0.0207    -2.4615 H       
  37 H37            3.1649    -2.9100     0.5965 H       
  38 H38           -0.3212     4.1115    -0.4223 H       
  39 H39            2.2556     0.9873     0.9831 H       
  40 H40            4.0766     2.6204     1.2436 H       
  41 H41            3.7057     4.9844     0.6725 H       
  42 H42            1.5131     5.7291    -0.1583 H       
  43 H43            5.2555    -2.9409     0.6546 H       
  44 H44            4.5106    -4.0215    -0.5478 H       
  45 H45            6.2303    -3.5846    -0.6884 H       
  46 H46           -4.8443     5.9353     3.8924 H       
  47 H47           -4.2354     6.7987     2.4599 H       
  48 H48           -5.6772     7.3983     3.3143 H       
  49 Br49          11.2303    12.3983     8.8924 Br      
@<TRIPOS>BOND
   1    1    2 2
   2    1   19 1
   3    1    5 1
   4    2    3 1
   5    2   13 1
   6    3    4 1
   7    4    5 2
   8    4    6 1
   9    6    7 1
  10    6   29 1
  11    7    8 ar
  12    7   12 ar
  13    8    9 ar
  14    8   30 1
  15    9   10 ar
  16    9   31 1
  17   10   11 ar
  18   10   27 1
  19   11   12 ar
  20   11   32 1
  21   12   33 1
  22   13   14 ar
  23   13   15 ar
  24   14   18 ar
  25   14   34 1
  26   15   16 ar
  27   15   35 1
  28   16   17 ar
  29   16   36 1
  30   17   18 ar
  31   17   25 1
  32   18   37 1
  33   19   20 ar
  34   19   21 ar
  35   20   24 ar
  36   20   38 1
  37   21   22 ar
  38   21   39 1
  39   22   23 ar
  40   22   40 1
  41   23   24 ar
  42   23   41 1
  43   24   42 1
  44   25   26 1
  45   26   43 1
  46   26   44 1
  47   26   45 1
  48   27   28 1
  49   28   46 1
  50   28   47 1
  51   28   48 1

#	End of record

