#	Name: ASD03731686
#	Creating user name:	WinNT
#	Creation time:	15. 06. 2019 20:46

#	Modifying user name:	WinNT
#	Modification time:	15. 06. 2019 20:46

#	Program:	/corina/corina34_cracker 3.40 0067  02.08.2006

@<TRIPOS>MOLECULE
ASD03731686
  37   38    0    0    0
SMALL
NO_CHARGES


@<TRIPOS>ATOM
   1 C1            -0.1369     1.4671     0.0334 C.2     
   2 C2            -0.0856    -0.0063     0.0192 C.ar    
   3 C3             1.1398    -0.6647    -0.1384 C.ar    
   4 C4             1.1826    -2.0443    -0.1511 C.ar    
   5 C5             0.0128    -2.7784    -0.0083 C.ar    
   6 C6            -1.2082    -2.1273     0.1488 C.ar    
   7 C7            -1.2599    -0.7504     0.1689 C.ar    
   8 O8             0.8862     2.1124    -0.0919 O.2     
   9 N9            -1.3184     2.0989     0.1797 N.am    
  10 S10           -1.3761     3.7538     0.1957 S.o2    
  11 O11           -2.7513     4.0547     0.3896 O.2     
  12 O12           -0.4011     4.1291     1.1589 O.2     
  13 C13           -0.8464     4.2412    -1.4694 C.3     
  14 F14           -2.3432    -2.8468     0.2873 F       
  15 F15            2.2783     0.0490    -0.2783 F       
  16 O16            0.0593    -4.1349    -0.0222 O.3     
  17 C17           -0.1521    -4.7688    -1.2065 C.ar    
  18 C18           -0.0459    -6.1512    -1.2829 C.ar    
  19 C19           -0.2613    -6.7947    -2.4866 C.ar    
  20 C20           -0.5835    -6.0595    -3.6181 C.ar    
  21 C21           -0.6895    -4.6789    -3.5413 C.ar    
  22 C22           -0.4794    -4.0353    -2.3369 C.ar    
  23 O23           -0.7951    -6.6927    -4.8026 O.3     
  24 C24           -1.1231    -5.8735    -5.9266 C.3     
  25 Cl25           0.3579    -7.0706     0.1332 Cl      
  26 H26            2.1273    -2.5534    -0.2727 H       
  27 H27           -2.2068    -0.2467     0.2956 H       
  28 H28           -2.1350     1.5842     0.2757 H       
  29 H29           -1.5287     3.8174    -2.2063 H       
  30 H30           -0.8546     5.3282    -1.5496 H       
  31 H31            0.1622     3.8709    -1.6528 H       
  32 H32           -0.1785    -7.8699    -2.5466 H       
  33 H33           -0.9404    -4.1069    -4.4224 H       
  34 H34           -0.5664    -2.9605    -2.2766 H       
  35 H35           -1.2658    -6.5024    -6.8053 H       
  36 H36           -2.0416    -5.3241    -5.7201 H       
  37 H37           -0.3122    -5.1690    -6.1118 H       
@<TRIPOS>BOND
   1    1    2 1
   2    1    8 2
   3    1    9 am
   4    2    3 ar
   5    2    7 ar
   6    3    4 ar
   7    3   15 1
   8    4    5 ar
   9    4   26 1
  10    5    6 ar
  11    5   16 1
  12    6    7 ar
  13    6   14 1
  14    7   27 1
  15    9   10 am
  16    9   28 1
  17   10   11 2
  18   10   12 2
  19   10   13 1
  20   13   29 1
  21   13   30 1
  22   13   31 1
  23   16   17 1
  24   17   18 ar
  25   17   22 ar
  26   18   19 ar
  27   18   25 1
  28   19   20 ar
  29   19   32 1
  30   20   21 ar
  31   20   23 1
  32   21   22 ar
  33   21   33 1
  34   22   34 1
  35   23   24 1
  36   24   35 1
  37   24   36 1
  38   24   37 1

#	End of record

