#	Name: ASD01914957
#	Creating user name:	WinNT
#	Creation time:	15. 06. 2019 20:04

#	Modifying user name:	WinNT
#	Modification time:	15. 06. 2019 20:04

#	Program:	/corina/corina34_cracker 3.40 0067  02.08.2006

@<TRIPOS>MOLECULE
ASD01914957
  57   60    0    0    0
SMALL
NO_CHARGES


@<TRIPOS>ATOM
   1 C1             0.1596     1.6259     2.3260 C.2     
   2 N2            -0.0016     0.3352     2.1250 N.2     
   3 C3             1.3409     2.0226     1.6694 C.2     
   4 C4             1.8713     0.9311     1.0761 C.2     
   5 N5             1.0657    -0.1199     1.3404 N.pl3   
   6 C6            -0.7466     2.5087     3.1021 C.ar    
   7 C7            -1.8910     1.9839     3.6988 C.ar    
   8 C8            -2.7306     2.8080     4.4198 C.ar    
   9 C9            -2.4371     4.1557     4.5505 C.ar    
  10 C10           -1.3001     4.6817     3.9588 C.ar    
  11 C11           -0.4522     3.8635     3.2409 C.ar    
  12 C12            3.1389     0.8931     0.2620 C.3     
  13 C13            1.2725    -1.4972     0.8860 C.3     
  14 C14            2.0899    -2.2458     1.9070 C.2     
  15 N15            2.4063    -3.5394     1.6999 N.am    
  16 O16            2.4631    -1.6841     2.9151 O.2     
  17 C17            3.2035    -4.2992     2.6777 C.3     
  18 C18            2.3520    -5.4642     3.1858 C.3     
  19 N19            1.7106    -6.1575     2.0770 N.am    
  20 C20            1.4899    -5.6222     0.8754 C.2     
  21 C21            1.9644    -4.2512     0.4915 C.3     
  22 C22            4.3395     0.7234     1.1951 C.3     
  23 C23            1.2965    -7.4774     2.2872 C.ar    
  24 C24            2.1540    -8.5290     1.9972 C.ar    
  25 F25           -3.2622     4.9594     5.2566 F       
  26 C26            1.7404    -9.8353     2.2073 C.ar    
  27 C27            0.4707   -10.0883     2.7067 C.ar    
  28 C28           -0.3821    -9.0395     2.9950 C.ar    
  29 C29            0.0283    -7.7364     2.7920 C.ar    
  30 O30            2.5776   -10.8675     1.9238 O.3     
  31 C31            2.0853   -12.1872     2.1648 C.3     
  32 O32            0.8750    -6.2722     0.0566 O.2     
  33 H33            1.7497     3.0219     1.6444 H       
  34 H34           -2.1209     0.9336     3.5968 H       
  35 H35           -3.6179     2.4021     4.8826 H       
  36 H36           -1.0750     5.7328     4.0632 H       
  37 H37            0.4341     4.2742     2.7802 H       
  38 H38            3.0986     0.0553    -0.4342 H       
  39 H39            3.2408     1.8242    -0.2955 H       
  40 H40            0.3070    -1.9880     0.7629 H       
  41 H41            1.8005    -1.4898    -0.0676 H       
  42 H42            4.1041    -4.6835     2.1988 H       
  43 H43            3.4769    -3.6525     3.5114 H       
  44 H44            2.9883    -6.1645     3.7268 H       
  45 H45            1.5863    -5.0814     3.8606 H       
  46 H46            1.1501    -3.7022     0.0185 H       
  47 H47            2.8013    -4.3353    -0.2018 H       
  48 H48            4.3798     1.5612     1.8913 H       
  49 H49            4.2377    -0.2077     1.7526 H       
  50 H50            5.2563     0.6959     0.6063 H       
  51 H51            3.1417    -8.3302     1.6083 H       
  52 H52            0.1483   -11.1061     2.8700 H       
  53 H53           -1.3700    -9.2392     3.3832 H       
  54 H54           -0.6399    -6.9187     3.0181 H       
  55 H55            1.8349   -12.2945     3.2202 H       
  56 H56            1.1943   -12.3585     1.5607 H       
  57 H57            2.8511   -12.9152     1.8972 H       
@<TRIPOS>BOND
   1    1    2 2
   2    1    3 1
   3    1    6 1
   4    2    5 1
   5    3    4 2
   6    3   33 1
   7    4    5 1
   8    4   12 1
   9    5   13 1
  10    6    7 ar
  11    6   11 ar
  12    7    8 ar
  13    7   34 1
  14    8    9 ar
  15    8   35 1
  16    9   10 ar
  17    9   25 1
  18   10   11 ar
  19   10   36 1
  20   11   37 1
  21   12   22 1
  22   12   38 1
  23   12   39 1
  24   13   14 1
  25   13   40 1
  26   13   41 1
  27   14   15 am
  28   14   16 2
  29   15   17 1
  30   15   21 1
  31   17   18 1
  32   17   42 1
  33   17   43 1
  34   18   19 1
  35   18   44 1
  36   18   45 1
  37   19   20 am
  38   19   23 1
  39   20   21 1
  40   20   32 2
  41   21   46 1
  42   21   47 1
  43   22   48 1
  44   22   49 1
  45   22   50 1
  46   23   24 ar
  47   23   29 ar
  48   24   26 ar
  49   24   51 1
  50   26   27 ar
  51   26   30 1
  52   27   28 ar
  53   27   52 1
  54   28   29 ar
  55   28   53 1
  56   29   54 1
  57   30   31 1
  58   31   55 1
  59   31   56 1
  60   31   57 1

#	End of record

