#	Name: ASD01883370
#	Creating user name:	WinNT
#	Creation time:	15. 06. 2019 19:46

#	Modifying user name:	WinNT
#	Modification time:	15. 06. 2019 19:46

#	Program:	/corina/corina34_cracker 3.40 0067  02.08.2006

@<TRIPOS>MOLECULE
ASD01883370
  59   61    0    0    0
SMALL
NO_CHARGES


@<TRIPOS>ATOM
   1 N1            -0.2972     1.9839    -0.3808 N.am    
   2 C2            -0.9002     1.8232     0.8118 C.2     
   3 C3            -2.0392     0.9908     0.9200 C.2     
   4 C4            -2.5162     0.3464    -0.2339 C.2     
   5 C5            -1.8427     0.5540    -1.4519 C.2     
   6 C6            -0.7626     1.3642    -1.4965 C.2     
   7 O7            -0.4652     2.3940     1.7977 O.2     
   8 C8            -2.6928     0.8082     2.1810 C.1     
   9 N9            -3.2113     0.6634     3.1814 N.1     
  10 C10            0.8810     2.8491    -0.4787 C.3     
  11 C11            2.1438     2.0207    -0.2339 C.3     
  12 C12            3.3742     2.9242    -0.3361 C.3     
  13 N13           -3.6211    -0.4729    -0.1740 N.pl3   
  14 C14           -4.9376     0.0618     0.2059 C.3     
  15 C15           -5.9610    -0.3687    -0.8503 C.3     
  16 N16           -5.9067    -1.8275    -1.0141 N.3     
  17 C17           -4.5957    -2.2589    -1.5170 C.3     
  18 C18           -3.5175    -1.9047    -0.4941 C.3     
  19 C19            3.3432     3.9577     0.7916 C.3     
  20 C20            4.6416     2.0756    -0.2154 C.3     
  21 C21           -6.9877    -2.2996    -1.8897 C.3     
  22 C22           -6.8418    -3.8061    -2.1134 C.3     
  23 O23           -7.0088    -4.4906    -0.8702 O.3     
  24 C24           -6.9083    -5.8461    -0.8937 C.ar    
  25 C25           -7.0598    -6.5738     0.2775 C.ar    
  26 C26           -6.9574    -7.9513     0.2522 C.ar    
  27 C27           -6.7033    -8.6054    -0.9414 C.ar    
  28 C28           -6.5519    -7.8803    -2.1111 C.ar    
  29 C29           -6.6599    -6.5032    -2.0897 C.ar    
  30 F30           -6.6025    -9.9525    -0.9645 F       
  31 H31           -2.1913     0.0686    -2.3515 H       
  32 H32           -0.2538     1.5160    -2.4370 H       
  33 H33            0.9245     3.2924    -1.4735 H       
  34 H34            0.8144     3.6396     0.2688 H       
  35 H35            2.1002     1.5773     0.7609 H       
  36 H36            2.2103     1.2302    -0.9814 H       
  37 H37            3.3701     3.4362    -1.2984 H       
  38 H38           -5.2269    -0.3348     1.1791 H       
  39 H39           -4.8921     1.1500     0.2495 H       
  40 H40           -6.9605    -0.0757    -0.5290 H       
  41 H41           -5.7281     0.1128    -1.8000 H       
  42 H42           -4.6050    -3.3368    -1.6791 H       
  43 H43           -4.3817    -1.7511    -2.4574 H       
  44 H44           -2.5332    -2.1180    -0.9108 H       
  45 H45           -3.6682    -2.4886     0.4139 H       
  46 H46            4.2198     4.6015     0.7188 H       
  47 H47            2.4403     4.5623     0.7056 H       
  48 H48            3.3473     3.4458     1.7539 H       
  49 H49            4.6637     1.3393    -1.0188 H       
  50 H50            5.5182     2.7193    -0.2882 H       
  51 H51            4.6457     1.5636     0.7469 H       
  52 H52           -7.9504    -2.0933    -1.4219 H       
  53 H53           -6.9311    -1.7828    -2.8477 H       
  54 H54           -7.6008    -4.1438    -2.8190 H       
  55 H55           -5.8514    -4.0194    -2.5154 H       
  56 H56           -7.2573    -6.0638     1.2087 H       
  57 H57           -7.0753    -8.5181     1.1639 H       
  58 H58           -6.3534    -8.3918    -3.0413 H       
  59 H59           -6.5421    -5.9378    -3.0023 H       
@<TRIPOS>BOND
   1    1    2 am
   2    1   10 1
   3    1    6 1
   4    2    3 1
   5    2    7 2
   6    3    4 2
   7    3    8 1
   8    4    5 1
   9    4   13 1
  10    5    6 2
  11    5   31 1
  12    6   32 1
  13    8    9 3
  14   10   11 1
  15   10   33 1
  16   10   34 1
  17   11   12 1
  18   11   35 1
  19   11   36 1
  20   12   19 1
  21   12   20 1
  22   12   37 1
  23   13   14 1
  24   13   18 1
  25   14   15 1
  26   14   38 1
  27   14   39 1
  28   15   16 1
  29   15   40 1
  30   15   41 1
  31   16   17 1
  32   16   21 1
  33   17   18 1
  34   17   42 1
  35   17   43 1
  36   18   44 1
  37   18   45 1
  38   19   46 1
  39   19   47 1
  40   19   48 1
  41   20   49 1
  42   20   50 1
  43   20   51 1
  44   21   22 1
  45   21   52 1
  46   21   53 1
  47   22   23 1
  48   22   54 1
  49   22   55 1
  50   23   24 1
  51   24   25 ar
  52   24   29 ar
  53   25   26 ar
  54   25   56 1
  55   26   27 ar
  56   26   57 1
  57   27   28 ar
  58   27   30 1
  59   28   29 ar
  60   28   58 1
  61   29   59 1

#	End of record

