#	Name: ASD01914933
#	Creating user name:	WinNT
#	Creation time:	15. 06. 2019 20:04

#	Modifying user name:	WinNT
#	Modification time:	15. 06. 2019 20:04

#	Program:	/corina/corina34_cracker 3.40 0067  02.08.2006

@<TRIPOS>MOLECULE
ASD01914933
  48   51    0    0    0
SMALL
NO_CHARGES


@<TRIPOS>ATOM
   1 C1            -0.0158     1.3120     0.0093 C.2     
   2 N2             0.0021    -0.0041     0.0020 N.2     
   3 C3             1.3183     1.7636    -0.0011 C.2     
   4 C4             2.1227     0.6785    -0.0146 C.2     
   5 N5             1.3391    -0.4213    -0.0130 N.pl3   
   6 C6            -1.2277     2.1688     0.0199 C.ar    
   7 C7            -1.1049     3.5533    -0.0788 C.ar    
   8 C8            -2.2329     4.3488    -0.0688 C.ar    
   9 C9            -3.4877     3.7746     0.0397 C.ar    
  10 C10           -3.6175     2.3944     0.1385 C.ar    
  11 C11           -2.4904     1.5903     0.1228 C.ar    
  12 C12            3.6296     0.6927    -0.0298 C.3     
  13 C13            1.8063    -1.8097    -0.0245 C.3     
  14 C14            1.9797    -2.2931     1.3923 C.2     
  15 N15            2.4045    -3.5502     1.6282 N.am    
  16 O16            1.7369    -1.5510     2.3203 O.2     
  17 C17            2.7065    -4.4720     0.5196 C.3     
  18 C18            2.1185    -5.8186     0.8760 C.2     
  19 C19            1.6236    -6.1484     2.0804 C.2     
  20 C20            1.5883    -5.1824     3.2549 C.3     
  21 C21            2.5880    -4.0452     3.0010 C.3     
  22 O22           -4.8513     1.8335     0.2453 O.3     
  23 F23           -4.5886     4.5576     0.0500 F       
  24 C24            4.1530     0.8156     1.4026 C.3     
  25 S25            1.9662    -7.2020    -0.1983 S.3     
  26 C26            1.2546    -8.1133     1.0603 C.2     
  27 N27            1.1709    -7.3975     2.1337 N.2     
  28 N28            0.8288    -9.4274     0.9466 N.pl3   
  29 H29            1.6408     2.7944     0.0009 H       
  30 H30           -0.1270     4.0040    -0.1628 H       
  31 H31           -2.1362     5.4218    -0.1453 H       
  32 H32           -2.5897     0.5176     0.1991 H       
  33 H33            3.9972    -0.2328    -0.4729 H       
  34 H34            3.9789     1.5411    -0.6184 H       
  35 H35            1.0740    -2.4353    -0.5348 H       
  36 H36            2.7609    -1.8675    -0.5475 H       
  37 H37            2.2557    -4.1033    -0.4017 H       
  38 H38            3.7857    -4.5605     0.3952 H       
  39 H39            0.5843    -4.7707     3.3580 H       
  40 H40            1.8625    -5.7096     4.1686 H       
  41 H41            3.6044    -4.4187     3.1259 H       
  42 H42            2.4064    -3.2356     3.7078 H       
  43 H43           -5.2580     1.6129    -0.6038 H       
  44 H44            3.8036    -0.0327     1.9911 H       
  45 H45            5.2429     0.8259     1.3915 H       
  46 H46            3.7853     1.7412     1.8456 H       
  47 H47            0.9264    -9.8977     0.1038 H       
  48 H48            0.4331    -9.8768     1.7098 H       
@<TRIPOS>BOND
   1    1    2 2
   2    1    3 1
   3    1    6 1
   4    2    5 1
   5    3    4 2
   6    3   29 1
   7    4    5 1
   8    4   12 1
   9    5   13 1
  10    6    7 ar
  11    6   11 ar
  12    7    8 ar
  13    7   30 1
  14    8    9 ar
  15    8   31 1
  16    9   10 ar
  17    9   23 1
  18   10   11 ar
  19   10   22 1
  20   11   32 1
  21   12   24 1
  22   12   33 1
  23   12   34 1
  24   13   14 1
  25   13   35 1
  26   13   36 1
  27   14   15 am
  28   14   16 2
  29   15   17 1
  30   15   21 1
  31   17   18 1
  32   17   37 1
  33   17   38 1
  34   18   19 2
  35   18   25 1
  36   19   20 1
  37   19   27 1
  38   20   21 1
  39   20   39 1
  40   20   40 1
  41   21   41 1
  42   21   42 1
  43   22   43 1
  44   24   44 1
  45   24   45 1
  46   24   46 1
  47   25   26 1
  48   26   27 2
  49   26   28 1
  50   28   47 1
  51   28   48 1

#	End of record

