#	Name: ASD03180078
#	Creating user name:	WinNT
#	Creation time:	15. 06. 2019 20:33

#	Modifying user name:	WinNT
#	Modification time:	15. 06. 2019 20:33

#	Program:	/corina/corina34_cracker 3.40 0067  02.08.2006

@<TRIPOS>MOLECULE
ASD03180078
  35   37    0    0    0
SMALL
NO_CHARGES


@<TRIPOS>ATOM
   1 C1            -0.0143     1.4197     0.2348 C.ar    
   2 C2            -1.2888    -0.1642     1.5076 C.ar    
   3 C3            -2.3850     0.0680     0.6971 C.ar    
   4 C4            -2.2956     0.9663    -0.3518 C.ar    
   5 C5            -1.1146     1.6471    -0.5815 C.ar    
   6 C6            -0.1045     0.5084     1.2798 C.ar    
   7 C7            -1.0214     2.6349    -1.7157 C.3     
   8 N8             1.1830     2.1019     0.0021 N.pl3   
   9 C9             2.3922     1.4300     0.0915 C.2     
  10 N10            3.5634     1.9814     0.0070 N.2     
  11 S11            2.5760    -0.3027     0.3451 S.3     
  12 C12            4.3286    -0.1262     0.3062 C.2     
  13 C13            4.6182     1.1744     0.1170 C.2     
  14 C14            6.0085     1.6730     0.0389 C.2     
  15 S15            7.4702     0.6977     0.1696 S.3     
  16 C16            8.4331     2.0955    -0.0338 C.2     
  17 N17            7.6868     3.1384    -0.1779 N.2     
  18 C18            6.3841     2.9560    -0.1511 C.2     
  19 C19            5.3964     4.0825    -0.3136 C.3     
  20 C20            9.9400     2.1081    -0.0436 C.3     
  21 Cl21          -3.6741     1.2542    -1.3670 Cl      
  22 H22           -1.3617    -0.8659     2.3254 H       
  23 H23           -3.3099    -0.4595     0.8776 H       
  24 H24            0.7510     0.3260     1.9132 H       
  25 H25           -1.3097     3.6243    -1.3605 H       
  26 H26            0.0029     2.6664    -2.0869 H       
  27 H27           -1.6901     2.3286    -2.5201 H       
  28 H28            1.1680     3.0455    -0.2221 H       
  29 H29            5.0473    -0.9244     0.4188 H       
  30 H30            5.1617     4.5037     0.6640 H       
  31 H31            5.8287     4.8561    -0.9482 H       
  32 H32            4.4844     3.7025    -0.7739 H       
  33 H33           10.2980     1.9667    -1.0633 H       
  34 H34           10.2979     3.0644     0.3378 H       
  35 H35           10.3142     1.3022     0.5879 H       
@<TRIPOS>BOND
   1    1    6 ar
   2    1    8 1
   3    1    5 ar
   4    2    3 ar
   5    2    6 ar
   6    2   22 1
   7    3    4 ar
   8    3   23 1
   9    4    5 ar
  10    4   21 1
  11    5    7 1
  12    6   24 1
  13    7   25 1
  14    7   26 1
  15    7   27 1
  16    8    9 1
  17    8   28 1
  18    9   11 1
  19    9   10 2
  20   10   13 1
  21   11   12 1
  22   12   13 2
  23   12   29 1
  24   13   14 1
  25   14   15 1
  26   14   18 2
  27   15   16 1
  28   16   17 2
  29   16   20 1
  30   17   18 1
  31   18   19 1
  32   19   30 1
  33   19   31 1
  34   19   32 1
  35   20   33 1
  36   20   34 1
  37   20   35 1

#	End of record

