#	Name: ASD00431410
#	Creating user name:	WinNT
#	Creation time:	15. 06. 2019 18:35

#	Modifying user name:	WinNT
#	Modification time:	15. 06. 2019 18:35

#	Program:	/corina/corina34_cracker 3.40 0067  02.08.2006

@<TRIPOS>MOLECULE
ASD00431410
  54   58    0    0    0
SMALL
NO_CHARGES


@<TRIPOS>ATOM
   1 C1            -0.0867     1.4841     0.0901 C.2     
   2 N2             0.0032     0.1420     0.1093 N.am    
   3 C3             1.2874    -0.2563     0.1525 C.2     
   4 C4             2.1523     0.9423     0.1635 C.ar    
   5 C5             3.5222     1.1471     0.2022 C.ar    
   6 C6             4.0242     2.4391     0.2016 C.ar    
   7 C7             3.1680     3.5236     0.1628 C.ar    
   8 C8             1.7954     3.3341     0.1238 C.ar    
   9 C9             1.2792     2.0482     0.1239 C.ar    
  10 O10           -1.1174     2.1250     0.0470 O.2     
  11 O11            1.6718    -1.4081     0.1788 O.2     
  12 C12           -1.1461    -0.7661     0.0867 C.3     
  13 C13           -1.0627    -1.6636    -1.1496 C.3     
  14 O14           -0.0618    -2.1698     1.9128 O.3     
  15 N15           -0.3593    -2.8042     2.8982 N.2     
  16 C16           -1.6539    -2.7723     3.1142 C.2     
  17 C17           -2.2085    -1.9782     2.0686 C.2     
  18 C18           -1.1363    -1.6197     1.3286 C.2     
  19 S19           -4.1276    -3.3691     4.4825 S.3     
  20 C20           -3.9588    -4.3472     5.8742 C.2     
  21 N21           -2.7113    -4.6496     6.0635 N.2     
  22 C22           -1.8419    -4.1760     5.1980 C.2     
  23 C23           -2.3870    -3.4272     4.2165 C.2     
  24 O24           -4.9811    -4.7486     6.6665 O.3     
  25 C25           -5.6788    -5.9706     8.5893 C.ar    
  26 C26           -4.7102    -5.6436     7.6538 C.ar    
  27 C27           -3.4565    -6.2431     7.7369 C.ar    
  28 C28           -3.2253    -7.1484     8.7578 C.ar    
  29 C29           -4.2443    -7.4269     9.6591 C.ar    
  30 N30           -5.4232    -6.8381     9.5500 N.ar    
  31 O31           -4.0274    -8.3135    10.6640 O.3     
  32 C32           -5.1142    -8.5581    11.5591 C.3     
  33 C33           -5.9591    -9.7188    11.0301 C.3     
  34 C34           -4.5656    -8.9154    12.9419 C.3     
  35 H35            4.1959     0.3035     0.2330 H       
  36 H36            5.0918     2.5996     0.2321 H       
  37 H37            3.5712     4.5255     0.1631 H       
  38 H38            1.1311     4.1851     0.0939 H       
  39 H39           -2.0677    -0.1851     0.0524 H       
  40 H40           -1.9178    -2.3393    -1.1664 H       
  41 H41           -1.0698    -1.0462    -2.0479 H       
  42 H42           -0.1411    -2.2446    -1.1153 H       
  43 H43           -3.2450    -1.7223     1.9057 H       
  44 H44           -0.7816    -4.3693     5.2672 H       
  45 H45           -6.6524    -5.5065     8.5343 H       
  46 H46           -2.6826    -6.0076     7.0214 H       
  47 H47           -2.2645    -7.6325     8.8522 H       
  48 H48           -5.7322    -7.6633    11.6334 H       
  49 H49           -5.3412   -10.6137    10.9558 H       
  50 H50           -6.7881    -9.9054    11.7128 H       
  51 H51           -6.3500    -9.4643    10.0450 H       
  52 H52           -3.9636    -8.0884    13.3187 H       
  53 H53           -5.3945    -9.1020    13.6246 H       
  54 H54           -3.9476    -9.8102    12.8675 H       
@<TRIPOS>BOND
   1    1    2 am
   2    1    9 1
   3    1   10 2
   4    2    3 am
   5    2   12 1
   6    3    4 1
   7    3   11 2
   8    4    5 ar
   9    4    9 ar
  10    5    6 ar
  11    5   35 1
  12    6    7 ar
  13    6   36 1
  14    7    8 ar
  15    7   37 1
  16    8    9 ar
  17    8   38 1
  18   12   13 1
  19   12   18 1
  20   12   39 1
  21   13   40 1
  22   13   41 1
  23   13   42 1
  24   14   15 1
  25   14   18 1
  26   15   16 2
  27   16   17 1
  28   16   23 1
  29   17   18 2
  30   17   43 1
  31   19   20 1
  32   19   23 1
  33   20   21 2
  34   20   24 1
  35   21   22 1
  36   22   23 2
  37   22   44 1
  38   24   26 1
  39   25   26 ar
  40   25   30 ar
  41   25   45 1
  42   26   27 ar
  43   27   28 ar
  44   27   46 1
  45   28   29 ar
  46   28   47 1
  47   29   30 ar
  48   29   31 1
  49   31   32 1
  50   32   33 1
  51   32   34 1
  52   32   48 1
  53   33   49 1
  54   33   50 1
  55   33   51 1
  56   34   52 1
  57   34   53 1
  58   34   54 1

#	End of record

