#	Name: ASD07990004
#	Creating user name:	WinNT
#	Creation time:	15. 06. 2019 21:14

#	Modifying user name:	WinNT
#	Modification time:	15. 06. 2019 21:14

#	Program:	/corina/corina34_cracker 3.40 0067  02.08.2006

@<TRIPOS>MOLECULE
ASD07990004
  45   47    0    0    0
SMALL
NO_CHARGES


@<TRIPOS>ATOM
   1 C1            -0.0168     1.3854     0.0097 C.ar    
   2 N2             0.0021    -0.0041     0.0020 N.pl3   
   3 C3             0.8464    -0.7571     0.8131 C.ar    
   4 C4             2.1953    -0.6539     0.5930 C.ar    
   5 C5             2.7178     0.2765    -0.4592 C.3     
   6 C6             2.5437     1.7269    -0.0818 C.3     
   7 C7             1.1061     2.1795     0.0032 C.ar    
   8 C8             0.9439     3.5663     0.0722 C.ar    
   9 C9            -0.3051     4.1416     0.1167 C.ar    
  10 C10           -1.4329     3.3416     0.0889 C.ar    
  11 C11           -1.2878     1.9735     0.0367 C.ar    
  12 C12            0.3439    -1.5864     1.8056 C.ar    
  13 C13            1.2250    -2.3298     2.5729 C.ar    
  14 C14            2.5866    -2.2395     2.3424 C.ar    
  15 C15            3.0769    -1.4043     1.3547 C.ar    
  16 C16           -0.9099    -0.7096    -0.9018 C.3     
  17 C17           -0.2196    -0.9359    -2.2483 C.3     
  18 C18           -1.1720    -1.6727    -3.1922 C.3     
  19 N19           -0.5092    -1.8900    -4.4851 N.3     
  20 C20            0.6269    -2.8108    -4.3461 C.3     
  21 C21           -1.4629    -2.3784    -5.4900 C.3     
  22 Cl22           0.6223    -3.3733     3.8225 Cl      
  23 H23            3.7783     0.0764    -0.6123 H       
  24 H24            2.1867     0.0882    -1.3922 H       
  25 H25            3.0160     1.8916     0.8866 H       
  26 H26            3.0567     2.3410    -0.8219 H       
  27 H27            1.8182     4.2000     0.0913 H       
  28 H28           -0.4046     5.2155     0.1735 H       
  29 H29           -2.4173     3.7855     0.1082 H       
  30 H30           -2.1661     1.3453     0.0161 H       
  31 H31           -0.7203    -1.6510     1.9777 H       
  32 H32            3.2713    -2.8252     2.9380 H       
  33 H33            4.1402    -1.3379     1.1779 H       
  34 H34           -1.1810    -1.6714    -0.4663 H       
  35 H35           -1.8090    -0.1116    -1.0503 H       
  36 H36            0.0516     0.0259    -2.6838 H       
  37 H37            0.6795    -1.5339    -2.0998 H       
  38 H38           -1.4431    -2.6345    -2.7567 H       
  39 H39           -2.0711    -1.0747    -3.3408 H       
  40 H40            0.2729    -3.7703    -3.9692 H       
  41 H41            1.0994    -2.9541    -5.3178 H       
  42 H42            1.3514    -2.3912    -3.6481 H       
  43 H43           -2.2576    -1.6445    -5.6236 H       
  44 H44           -0.9460    -2.5309    -6.4375 H       
  45 H45           -1.8926    -3.3223    -5.1546 H       
@<TRIPOS>BOND
   1    1    2 1
   2    1    7 ar
   3    1   11 ar
   4    2    3 1
   5    2   16 1
   6    3    4 ar
   7    3   12 ar
   8    4    5 1
   9    4   15 ar
  10    5    6 1
  11    5   23 1
  12    5   24 1
  13    6    7 1
  14    6   25 1
  15    6   26 1
  16    7    8 ar
  17    8    9 ar
  18    8   27 1
  19    9   10 ar
  20    9   28 1
  21   10   11 ar
  22   10   29 1
  23   11   30 1
  24   12   13 ar
  25   12   31 1
  26   13   14 ar
  27   13   22 1
  28   14   15 ar
  29   14   32 1
  30   15   33 1
  31   16   17 1
  32   16   34 1
  33   16   35 1
  34   17   18 1
  35   17   36 1
  36   17   37 1
  37   18   19 1
  38   18   38 1
  39   18   39 1
  40   19   20 1
  41   19   21 1
  42   20   40 1
  43   20   41 1
  44   20   42 1
  45   21   43 1
  46   21   44 1
  47   21   45 1

#	End of record

