#	Name: ASD04590545
#	Creating user name:	WinNT
#	Creation time:	15. 06. 2019 20:51

#	Modifying user name:	WinNT
#	Modification time:	15. 06. 2019 20:51

#	Program:	/corina/corina34_cracker 3.40 0067  02.08.2006

@<TRIPOS>MOLECULE
ASD04590545
  63   68    0    0    0
SMALL
NO_CHARGES


@<TRIPOS>ATOM
   1 N1             2.1549     1.4837    -0.1526 N.ar    
   2 C2             2.2558     0.1595    -0.1190 C.ar    
   3 C3             1.1215    -0.6154    -0.0603 C.ar    
   4 C4            -0.1289    -0.0008    -0.0555 C.ar    
   5 C5            -0.1961     1.3781    -0.0985 C.ar    
   6 C6             0.9897     2.1041    -0.1443 C.ar    
   7 N7             0.9472     3.4950    -0.1818 N.pl3   
   8 C8             2.1227     4.2259    -0.1209 C.ar    
   9 N9             2.0650     5.5403    -0.2608 N.ar    
  10 C10            3.1715     6.2759    -0.2083 C.ar    
  11 C11            4.4031     5.6227    -0.0007 C.ar    
  12 C12            4.4138     4.2386     0.1408 C.ar    
  13 N13            3.2659     3.5836     0.0809 N.ar    
  14 N14            3.4084     7.6237    -0.3177 N.pl3   
  15 C15            4.7608     7.8890    -0.1893 C.ar    
  16 C16            5.4325     6.6699     0.0113 C.ar    
  17 C17            5.5083     9.0592    -0.2221 C.ar    
  18 N18            6.8163     9.0234    -0.0687 N.ar    
  19 C19            7.4772     7.8952     0.1215 C.ar    
  20 C20            6.8178     6.6853     0.1692 C.ar    
  21 C21            2.3752     8.6383    -0.5399 C.3     
  22 C22            1.3687     8.6020     0.6118 C.3     
  23 C23            0.2897     9.6616     0.3797 C.3     
  24 C24           -0.4326     9.3740    -0.9380 C.3     
  25 C25            0.5740     9.4103    -2.0898 C.3     
  26 C26            1.6530     8.3507    -1.8577 C.3     
  27 C27           -1.5115    10.4336    -1.1701 C.3     
  28 C28            3.6417    -0.4307    -0.1650 C.3     
  29 C29            3.6411    -1.8622     0.3683 C.3     
  30 N30            2.5304    -2.5854    -0.2725 N.am    
  31 C31            1.1692    -2.1198     0.0148 C.3     
  32 C32            2.7550    -3.6327    -1.0904 C.2     
  33 C33            1.5953    -4.4290    -1.6309 C.3     
  34 O34            3.8905    -3.9344    -1.3915 O.2     
  35 H35           -1.0312    -0.5931    -0.0192 H       
  36 H36           -1.1509     1.8829    -0.0966 H       
  37 H37            0.0946     3.9525    -0.2505 H       
  38 H38            5.3414     3.7092     0.3005 H       
  39 H39            5.0130    10.0066    -0.3750 H       
  40 H40            8.5502     7.9211     0.2413 H       
  41 H41            7.3641     5.7667     0.3247 H       
  42 H42            2.8381     9.6240    -0.5869 H       
  43 H43            0.9057     7.6163     0.6588 H       
  44 H44            1.8832     8.8069     1.5506 H       
  45 H45           -0.4274     9.6358     1.2002 H       
  46 H46            0.7526    10.6473     0.3327 H       
  47 H47           -0.8955     8.3883    -0.8910 H       
  48 H48            0.0595     9.2054    -3.0286 H       
  49 H49            1.0369    10.3960    -2.1368 H       
  50 H50            2.3701     8.3766    -2.6782 H       
  51 H51            1.1901     7.3650    -1.8107 H       
  52 H52           -1.0486    11.4193    -1.2171 H       
  53 H53           -2.0261    10.2287    -2.1089 H       
  54 H54           -2.2286    10.4078    -0.3496 H       
  55 H55            3.9968    -0.4321    -1.1955 H       
  56 H56            4.3109     0.1781     0.4431 H       
  57 H57            4.5863    -2.3470     0.1237 H       
  58 H58            3.5000    -1.8528     1.4491 H       
  59 H59            0.8788    -2.4425     1.0146 H       
  60 H60            0.4796    -2.5415    -0.7165 H       
  61 H61            0.6595    -3.9617    -1.3244 H       
  62 H62            1.6487    -4.4557    -2.7193 H       
  63 H63            1.6389    -5.4455    -1.2399 H       
@<TRIPOS>BOND
   1    1    2 ar
   2    1    6 ar
   3    2    3 ar
   4    2   28 1
   5    3    4 ar
   6    3   31 1
   7    4    5 ar
   8    4   35 1
   9    5    6 ar
  10    5   36 1
  11    6    7 1
  12    7    8 1
  13    7   37 1
  14    8    9 ar
  15    8   13 ar
  16    9   10 ar
  17   10   11 ar
  18   10   14 1
  19   11   12 ar
  20   11   16 1
  21   12   13 ar
  22   12   38 1
  23   14   15 1
  24   14   21 1
  25   15   16 ar
  26   15   17 ar
  27   16   20 ar
  28   17   18 ar
  29   17   39 1
  30   18   19 ar
  31   19   20 ar
  32   19   40 1
  33   20   41 1
  34   21   22 1
  35   21   26 1
  36   21   42 1
  37   22   23 1
  38   22   43 1
  39   22   44 1
  40   23   24 1
  41   23   45 1
  42   23   46 1
  43   24   25 1
  44   24   27 1
  45   24   47 1
  46   25   26 1
  47   25   48 1
  48   25   49 1
  49   26   50 1
  50   26   51 1
  51   27   52 1
  52   27   53 1
  53   27   54 1
  54   28   29 1
  55   28   55 1
  56   28   56 1
  57   29   30 1
  58   29   57 1
  59   29   58 1
  60   30   31 1
  61   30   32 am
  62   31   59 1
  63   31   60 1
  64   32   33 1
  65   32   34 2
  66   33   61 1
  67   33   62 1
  68   33   63 1

#	End of record

