#	Name: ASD01915753
#	Creating user name:	WinNT
#	Creation time:	15. 06. 2019 20:06

#	Modifying user name:	WinNT
#	Modification time:	15. 06. 2019 20:06

#	Program:	/corina/corina34_cracker 3.40 0067  02.08.2006

@<TRIPOS>MOLECULE
ASD01915753
  40   42    0    0    0
SMALL
NO_CHARGES


@<TRIPOS>ATOM
   1 C1            -0.4105     1.7403     0.1048 C.ar    
   2 C2            -0.5432     0.3901     0.3734 C.ar    
   3 N3             0.4999    -0.3400     0.7071 N.ar    
   4 C4             1.7178     0.1815     0.8001 C.ar    
   5 C5             1.9312     1.5324     0.5450 C.ar    
   6 C6             0.8475     2.3312     0.1895 C.ar    
   7 C7            -1.9023    -0.2547     0.2832 C.3     
   8 O8             1.0133     3.6536    -0.0680 O.3     
   9 C9             2.2650     4.1722     0.0380 C.ar    
  10 C10            3.1956     3.9762    -0.9720 C.ar    
  11 N11            4.4111     4.4771    -0.8732 N.ar    
  12 C12            4.7901     5.1780     0.1773 C.ar    
  13 C13            3.9188     5.4155     1.2241 C.ar    
  14 C14            2.6297     4.9123     1.1586 C.ar    
  15 C15            2.8593    -0.6830     1.1795 C.2     
  16 N16            2.6594    -1.9924     1.4285 N.am    
  17 O17            3.9760    -0.2116     1.2662 O.2     
  18 C18            3.7465    -2.8276     1.6822 C.ar    
  19 C19            3.5449    -4.1957     1.8227 C.ar    
  20 C20            4.6320    -5.0145     2.0739 C.ar    
  21 C21            5.8900    -4.4328     2.1763 C.ar    
  22 C22            6.0162    -3.0636     2.0252 C.ar    
  23 N23            4.9609    -2.3106     1.7813 N.ar    
  24 C24            6.1922     5.7272     0.2379 C.3     
  25 F25            6.9776    -5.1961     2.4211 F       
  26 H26           -1.2725     2.3290    -0.1721 H       
  27 H27            2.9221     1.9550     0.6217 H       
  28 H28           -2.0628    -0.6238    -0.7297 H       
  29 H29           -1.9574    -1.0862     0.9859 H       
  30 H30           -2.6698     0.4795     0.5283 H       
  31 H31            2.9216     3.4072    -1.8481 H       
  32 H32            4.2380     5.9901     2.0810 H       
  33 H33            1.9279     5.0827     1.9615 H       
  34 H34            1.7592    -2.3537     1.4312 H       
  35 H35            2.5530    -4.6142     1.7374 H       
  36 H36            4.5056    -6.0810     2.1880 H       
  37 H37            6.9913    -2.6060     2.1037 H       
  38 H38            6.2124     6.7216    -0.2080 H       
  39 H39            6.5137     5.7886     1.2776 H       
  40 H40            6.8644     5.0687    -0.3120 H       
@<TRIPOS>BOND
   1    1    2 ar
   2    1    6 ar
   3    1   26 1
   4    2    3 ar
   5    2    7 1
   6    3    4 ar
   7    4    5 ar
   8    4   15 1
   9    5    6 ar
  10    5   27 1
  11    6    8 1
  12    7   28 1
  13    7   29 1
  14    7   30 1
  15    8    9 1
  16    9   10 ar
  17    9   14 ar
  18   10   11 ar
  19   10   31 1
  20   11   12 ar
  21   12   13 ar
  22   12   24 1
  23   13   14 ar
  24   13   32 1
  25   14   33 1
  26   15   16 am
  27   15   17 2
  28   16   18 1
  29   16   34 1
  30   18   19 ar
  31   18   23 ar
  32   19   20 ar
  33   19   35 1
  34   20   21 ar
  35   20   36 1
  36   21   22 ar
  37   21   25 1
  38   22   23 ar
  39   22   37 1
  40   24   38 1
  41   24   39 1
  42   24   40 1

#	End of record

