#	Name: ASD02562046
#	Creating user name:	WinNT
#	Creation time:	15. 06. 2019 20:25

#	Modifying user name:	WinNT
#	Modification time:	15. 06. 2019 20:25

#	Program:	/corina/corina34_cracker 3.40 0067  02.08.2006

@<TRIPOS>MOLECULE
ASD02562046
  43   46    0    0    0
SMALL
NO_CHARGES


@<TRIPOS>ATOM
   1 C1             0.1365     1.3888     1.1084 C.2     
   2 C2             0.1576    -0.0174     1.0958 C.2     
   3 C3             1.2858    -0.6789     0.7695 C.2     
   4 N4             2.4263     0.0060     0.4456 N.pl3   
   5 C5             2.4358     1.3822     0.4489 C.2     
   6 C6             1.2599     2.0843     0.7895 C.2     
   7 C7             3.6781    -0.4088     0.0845 C.2     
   8 C8             4.4299     0.7280    -0.1263 C.2     
   9 N9             3.6439     1.7959     0.1039 N.2     
  10 N10            4.1117    -1.7283    -0.0453 N.3     
  11 C11            5.8535     0.7669    -0.5347 C.ar    
  12 C12            2.9883    -2.6664     0.0809 C.3     
  13 C13            3.3283    -3.9699    -0.6446 C.3     
  14 C14            2.1583    -4.9469    -0.5132 C.3     
  15 C15            1.9014    -5.2389     0.9665 C.3     
  16 C16            1.5613    -3.9355     1.6920 C.3     
  17 C17            2.7314    -2.9584     1.5606 C.3     
  18 C18            6.3115     1.7756    -1.3814 C.ar    
  19 C19            7.6396     1.8064    -1.7586 C.ar    
  20 C20            8.5149     0.8381    -1.2980 C.ar    
  21 C21            8.0655    -0.1650    -0.4577 C.ar    
  22 C22            6.7422    -0.2023    -0.0692 C.ar    
  23 Br23           8.2633     3.1733    -2.9067 Br      
  24 H24           -0.7709     1.9145     1.3665 H       
  25 H25           -0.7349    -0.5702     1.3492 H       
  26 H26            1.2903    -1.7589     0.7639 H       
  27 H27            1.2526     3.1643     0.7959 H       
  28 H28            4.6001    -1.8643    -0.9176 H       
  29 H29            2.0955    -2.2259    -0.3629 H       
  30 H30            3.5113    -3.7618    -1.6988 H       
  31 H31            4.2211    -4.4104    -0.2009 H       
  32 H32            1.2654    -4.5063    -0.9570 H       
  33 H33            2.4005    -5.8755    -1.0301 H       
  34 H34            1.0678    -5.9350     1.0601 H       
  35 H35            2.7942    -5.6795     1.4102 H       
  36 H36            0.6685    -3.4949     1.2483 H       
  37 H37            1.3783    -4.1435     2.7462 H       
  38 H38            3.6242    -3.3990     2.0043 H       
  39 H39            2.4891    -2.0299     2.0775 H       
  40 H40            5.6289     2.5311    -1.7417 H       
  41 H41            9.5526     0.8655    -1.5960 H       
  42 H42            8.7531    -0.9178    -0.1015 H       
  43 H43            6.3930    -0.9858     0.5871 H       
@<TRIPOS>BOND
   1    1    2 1
   2    1    6 2
   3    1   24 1
   4    2    3 2
   5    2   25 1
   6    3    4 1
   7    3   26 1
   8    4    5 1
   9    4    7 1
  10    5    6 1
  11    5    9 2
  12    6   27 1
  13    7    8 2
  14    7   10 1
  15    8    9 1
  16    8   11 1
  17   10   12 1
  18   10   28 1
  19   11   18 ar
  20   11   22 ar
  21   12   13 1
  22   12   17 1
  23   12   29 1
  24   13   14 1
  25   13   30 1
  26   13   31 1
  27   14   15 1
  28   14   32 1
  29   14   33 1
  30   15   16 1
  31   15   34 1
  32   15   35 1
  33   16   17 1
  34   16   36 1
  35   16   37 1
  36   17   38 1
  37   17   39 1
  38   18   19 ar
  39   18   40 1
  40   19   20 ar
  41   19   23 1
  42   20   21 ar
  43   20   41 1
  44   21   22 ar
  45   21   42 1
  46   22   43 1

#	End of record

