#	Name: ASD03091298
#	Creating user name:	WinNT
#	Creation time:	15. 06. 2019 20:30

#	Modifying user name:	WinNT
#	Modification time:	15. 06. 2019 20:30

#	Program:	/corina/corina34_cracker 3.40 0067  02.08.2006

@<TRIPOS>MOLECULE
ASD03091298
  63   66    0    0    0
SMALL
NO_CHARGES


@<TRIPOS>ATOM
   1 C1            -0.7429     1.3885     0.0591 C.3     
   2 N2            -0.4748    -0.0516     0.0343 N.am    
   3 C3            -0.2016    -0.7062     1.1940 C.2     
   4 N4             0.0460    -1.9789     1.2543 N.2     
   5 C5             0.0490    -2.7570     0.1423 C.ar    
   6 C6            -0.2248    -2.1625    -1.1095 C.ar    
   7 C7            -0.5066    -0.7196    -1.1424 C.2     
   8 C8            -0.1850     0.0867     2.4755 C.3     
   9 O9            -0.7501    -0.1465    -2.1885 O.2     
  10 C10            0.3161    -4.1263     0.2083 C.ar    
  11 C11            0.3105    -4.8769    -0.9326 C.ar    
  12 C12            0.0409    -4.2951    -2.1712 C.ar    
  13 C13           -0.2272    -2.9400    -2.2652 C.ar    
  14 N14            0.0416    -5.0848    -3.3245 N.3     
  15 C15            0.5998    -4.3491    -4.4654 C.3     
  16 C16            0.7988    -5.2355    -5.6849 C.3     
  17 N17           -0.4890    -5.7664    -6.1572 N.3     
  18 C18           -0.7290    -7.0946    -5.5749 C.3     
  19 C19           -1.2582    -6.9952    -4.1584 C.3     
  20 C20           -1.3115    -5.5687    -3.6323 C.3     
  21 C21            0.1413    -0.8428     3.6461 C.3     
  22 C22            0.5503     2.1432    -0.1113 C.2     
  23 N23            0.5479     3.4910    -0.1198 N.am    
  24 O24            1.5932     1.5379    -0.2408 O.2     
  25 C25           -0.7119     4.2222     0.0366 C.3     
  26 C26            1.8050     4.2247    -0.2854 C.3     
  27 C27            1.7253     5.0963    -1.5404 C.3     
  28 C28            2.0424     5.1125     0.9378 C.3     
  29 C29           -1.9830    -4.5968    -4.5853 C.3     
  30 C30           -1.6291    -4.8834    -6.0353 C.3     
  31 H31           -1.4233     1.6454    -0.7527 H       
  32 H32           -1.1974     1.6570     1.0128 H       
  33 H33            0.5725     0.8677     2.4097 H       
  34 H34           -1.1628     0.5413     2.6342 H       
  35 H35            0.5270    -4.5908     1.1602 H       
  36 H36            0.5182    -5.9351    -0.8749 H       
  37 H37           -0.4359    -2.4904    -3.2248 H       
  38 H38           -0.0776    -3.5360    -4.7267 H       
  39 H39            1.5615    -3.9257    -4.1759 H       
  40 H40            1.2605    -4.6520    -6.4814 H       
  41 H41            1.4548    -6.0655    -5.4223 H       
  42 H42           -1.4551    -7.6267    -6.1895 H       
  43 H43            0.2065    -7.6539    -5.5669 H       
  44 H44           -2.2635    -7.4157    -4.1306 H       
  45 H45           -0.6172    -7.5855    -3.5037 H       
  46 H46           -1.8874    -5.5705    -2.7069 H       
  47 H47            0.1534    -0.2693     4.5730 H       
  48 H48           -0.6161    -1.6239     3.7120 H       
  49 H49            1.1192    -1.2975     3.4875 H       
  50 H50           -0.8939     4.4102     1.0947 H       
  51 H51           -0.6495     5.1714    -0.4956 H       
  52 H52           -1.5296     3.6291    -0.3729 H       
  53 H53            2.6281     3.5172    -0.3861 H       
  54 H54            2.6606     5.6422    -1.6636 H       
  55 H55            1.5562     4.4638    -2.4119 H       
  56 H56            0.9022     5.8037    -1.4397 H       
  57 H57            2.0992     4.4915     1.8319 H       
  58 H58            2.9777     5.6584     0.8146 H       
  59 H59            1.2193     5.8200     1.0385 H       
  60 H60           -3.0636    -4.6704    -4.4631 H       
  61 H61           -1.6682    -3.5831    -4.3375 H       
  62 H62           -1.4026    -3.9424    -6.5365 H       
  63 H63           -2.4873    -5.3446    -6.5241 H       
@<TRIPOS>BOND
   1    1    2 1
   2    1   22 1
   3    1   31 1
   4    1   32 1
   5    2    3 1
   6    2    7 am
   7    3    4 2
   8    3    8 1
   9    4    5 1
  10    5    6 ar
  11    5   10 ar
  12    6    7 1
  13    6   13 ar
  14    7    9 2
  15    8   21 1
  16    8   33 1
  17    8   34 1
  18   10   11 ar
  19   10   35 1
  20   11   12 ar
  21   11   36 1
  22   12   13 ar
  23   12   14 1
  24   13   37 1
  25   14   15 1
  26   14   20 1
  27   15   16 1
  28   15   38 1
  29   15   39 1
  30   16   17 1
  31   16   40 1
  32   16   41 1
  33   17   18 1
  34   17   30 1
  35   18   19 1
  36   18   42 1
  37   18   43 1
  38   19   20 1
  39   19   44 1
  40   19   45 1
  41   20   29 1
  42   20   46 1
  43   21   47 1
  44   21   48 1
  45   21   49 1
  46   22   23 am
  47   22   24 2
  48   23   25 1
  49   23   26 1
  50   25   50 1
  51   25   51 1
  52   25   52 1
  53   26   27 1
  54   26   28 1
  55   26   53 1
  56   27   54 1
  57   27   55 1
  58   27   56 1
  59   28   57 1
  60   28   58 1
  61   28   59 1
  62   29   30 1
  63   29   60 1
  64   29   61 1
  65   30   62 1
  66   30   63 1

#	End of record

