#	Name: ASD01810396
#	Creating user name:	WinNT
#	Creation time:	15. 06. 2019 19:24

#	Modifying user name:	WinNT
#	Modification time:	15. 06. 2019 19:24

#	Program:	/corina/corina34_cracker 3.40 0067  02.08.2006

@<TRIPOS>MOLECULE
ASD01810396
  36   38    0    0    0
SMALL
NO_CHARGES


@<TRIPOS>ATOM
   1 C1            -0.0155     1.3843    -0.1262 C.ar    
   2 C2             0.0033    -0.0034    -0.1325 C.ar    
   3 C3             1.1982    -0.6915    -0.1027 C.ar    
   4 C4             2.4039     0.0090    -0.0659 C.ar    
   5 C5             2.3801     1.4132    -0.0597 C.ar    
   6 C6             1.1632     2.0952    -0.0901 C.ar    
   7 N7             3.6055    -0.6664    -0.0353 N.pl3   
   8 C8             4.7886    -0.0409     0.0014 C.2     
   9 C9             4.8927     1.3357     0.0111 C.2     
  10 C10            3.6618     2.1419    -0.0206 C.2     
  11 O11            3.7000     3.3598    -0.0140 O.2     
  12 C12            6.2105     1.9852     0.0528 C.2     
  13 C13            3.5868    -2.1313    -0.0430 C.3     
  14 C14            3.4470    -2.6130    -1.4269 C.1     
  15 O15            7.2206     1.3094     0.0792 O.2     
  16 O16            6.2990     3.3303     0.0618 O.3     
  17 F17            1.2008    -2.0425    -0.1088 F       
  18 C18            3.3355    -2.9972    -2.5306 C.1     
  19 C19            3.1995    -3.4658    -3.8769 C.ar    
  20 C20            3.1572    -4.8352    -4.1412 C.ar    
  21 C21            3.0255    -5.2802    -5.4406 C.ar    
  22 C22            2.9356    -4.3719    -6.4802 C.ar    
  23 C23            2.9773    -3.0129    -6.2249 C.ar    
  24 C24            3.1029    -2.5548    -4.9295 C.ar    
  25 H25           -0.9590     1.9091    -0.1543 H       
  26 H26           -0.9276    -0.5502    -0.1607 H       
  27 H27            1.1459     3.1750    -0.0853 H       
  28 H28            5.6916    -0.6329     0.0247 H       
  29 H29            4.5174    -2.5087     0.3808 H       
  30 H30            2.7459    -2.4870     0.5523 H       
  31 H31            7.1872     3.7116     0.0897 H       
  32 H32            3.2277    -5.5453    -3.3305 H       
  33 H33            2.9930    -6.3399    -5.6465 H       
  34 H34            2.8326    -4.7253    -7.4955 H       
  35 H35            2.9073    -2.3089    -7.0410 H       
  36 H36            3.1355    -1.4936    -4.7315 H       
@<TRIPOS>BOND
   1    1    2 ar
   2    1    6 ar
   3    1   25 1
   4    2    3 ar
   5    2   26 1
   6    3    4 ar
   7    3   17 1
   8    4    5 ar
   9    4    7 1
  10    5    6 ar
  11    5   10 1
  12    6   27 1
  13    7    8 1
  14    7   13 1
  15    8    9 2
  16    8   28 1
  17    9   10 1
  18    9   12 1
  19   10   11 2
  20   12   15 2
  21   12   16 1
  22   13   14 1
  23   13   29 1
  24   13   30 1
  25   14   18 3
  26   16   31 1
  27   18   19 1
  28   19   20 ar
  29   19   24 ar
  30   20   21 ar
  31   20   32 1
  32   21   22 ar
  33   21   33 1
  34   22   23 ar
  35   22   34 1
  36   23   24 ar
  37   23   35 1
  38   24   36 1

#	End of record

