#	Name: ASD08070109
#	Creating user name:	WinNT
#	Creation time:	15. 06. 2019 21:14

#	Modifying user name:	WinNT
#	Modification time:	15. 06. 2019 21:14

#	Program:	/corina/corina34_cracker 3.40 0067  02.08.2006

@<TRIPOS>MOLECULE
ASD08070109
  37   39    0    0    0
SMALL
NO_CHARGES


@<TRIPOS>ATOM
   1 C1            -0.0166     1.3732     0.0096 C.ar    
   2 C2             0.0021    -0.0041     0.0020 C.ar    
   3 C3             1.1757     2.0864     0.0020 C.ar    
   4 C4             2.3930     1.4130    -0.0132 C.ar    
   5 C5             2.4198     0.0355    -0.0213 C.ar    
   6 C6             1.2221    -0.6846    -0.0133 C.ar    
   7 C7             1.2460    -2.1604    -0.0214 C.2     
   8 N8             0.0899    -2.8532    -0.0137 N.am    
   9 C9            -1.1833    -4.8780     0.5999 C.3     
  10 O10            2.3086    -2.7511    -0.0351 O.2     
  11 O11            1.1529     3.4435     0.0091 O.3     
  12 C12            0.1137    -4.3179    -0.0217 C.3     
  13 C13           -0.1311     4.0706     0.0242 C.3     
  14 Cl14           3.8797     2.3094    -0.0226 Cl      
  15 C15            0.1266    -4.8352    -1.4442 C.ar    
  16 C16           -0.7577    -5.8904    -1.5658 C.ar    
  17 C17           -1.4256    -6.1545    -0.2333 C.3     
  18 C18            0.8544    -4.4154    -2.5453 C.ar    
  19 C19            0.6988    -5.0474    -3.7633 C.ar    
  20 C20           -0.1858    -6.1029    -3.8849 C.ar    
  21 C21           -0.9113    -6.5239    -2.7878 C.ar    
  22 H22           -0.9596     1.8996     0.0169 H       
  23 H23           -0.9254    -0.5573     0.0082 H       
  24 H24            3.3649    -0.4869    -0.0338 H       
  25 H25           -0.7578    -2.3819    -0.0027 H       
  26 H26           -1.0342    -5.1241     1.6513 H       
  27 H27           -2.0066    -4.1740     0.4786 H       
  28 H28            0.9834    -4.6845     0.5235 H       
  29 H29           -0.6747     3.7639     0.9178 H       
  30 H30           -0.0065     5.1535     0.0285 H       
  31 H31           -0.6913     3.7729    -0.8621 H       
  32 H32           -0.9698    -7.0164     0.2540 H       
  33 H33           -2.4942    -6.3186    -0.3718 H       
  34 H34            1.5457    -3.5910    -2.4511 H       
  35 H35            1.2673    -4.7172    -4.6201 H       
  36 H36           -0.3089    -6.5981    -4.8368 H       
  37 H37           -1.6022    -7.3485    -2.8836 H       
@<TRIPOS>BOND
   1    1    2 ar
   2    1    3 ar
   3    1   22 1
   4    2    6 ar
   5    2   23 1
   6    3    4 ar
   7    3   11 1
   8    4    5 ar
   9    4   14 1
  10    5    6 ar
  11    5   24 1
  12    6    7 1
  13    7    8 am
  14    7   10 2
  15    8   12 1
  16    8   25 1
  17    9   12 1
  18    9   17 1
  19    9   26 1
  20    9   27 1
  21   11   13 1
  22   12   15 1
  23   12   28 1
  24   13   29 1
  25   13   30 1
  26   13   31 1
  27   15   16 ar
  28   15   18 ar
  29   16   17 1
  30   16   21 ar
  31   17   32 1
  32   17   33 1
  33   18   19 ar
  34   18   34 1
  35   19   20 ar
  36   19   35 1
  37   20   21 ar
  38   20   36 1
  39   21   37 1

#	End of record

