#	Name: ASD01915505
#	Creating user name:	WinNT
#	Creation time:	15. 06. 2019 20:05

#	Modifying user name:	WinNT
#	Modification time:	15. 06. 2019 20:05

#	Program:	/corina/corina34_cracker 3.40 0067  02.08.2006

@<TRIPOS>MOLECULE
ASD01915505
  41   44    0    0    0
SMALL
NO_CHARGES


@<TRIPOS>ATOM
   1 C1            -0.0042     1.4685     0.2348 C.2     
   2 N2             0.0661     0.1191    -0.0301 N.pl3   
   3 C3            -1.1430    -0.6637    -0.3128 C.3     
   4 C4            -2.3280    -0.0486     0.4296 C.3     
   5 N5            -2.4044     1.3988     0.2637 N.am    
   6 C6            -1.2935     2.1742     0.2862 C.2     
   7 C7             1.2763     1.9057     0.4257 C.2     
   8 C8             2.0758     0.7649     0.2735 C.2     
   9 N9             1.2864    -0.2505     0.0108 N.2     
  10 C10            3.5774     0.7129     0.3904 C.3     
  11 O11            4.0777     2.0188     0.6843 O.3     
  12 C12            5.4236     2.1471     0.8227 C.ar    
  13 C13           -3.6541     2.0003     0.0770 C.ar    
  14 O14           -1.3589     3.3874     0.3463 O.2     
  15 C15            5.9776     3.3865     1.1083 C.ar    
  16 C16            6.2452     1.0379     0.6844 C.ar    
  17 C17            7.6129     1.1709     0.8255 C.ar    
  18 C18            8.1632     2.4084     1.1045 C.ar    
  19 C19            7.3460     3.5144     1.2485 C.ar    
  20 C20           -3.9647     2.5956    -1.1386 C.ar    
  21 C21           -5.1987     3.1882    -1.3209 C.ar    
  22 C22           -6.1261     3.1891    -0.2926 C.ar    
  23 C23           -5.8186     2.5961     0.9204 C.ar    
  24 C24           -4.5876     1.9977     1.1052 C.ar    
  25 F25           -7.3326     3.7698    -0.4728 F       
  26 H26           -1.3404    -0.6539    -1.3848 H       
  27 H27           -0.9978    -1.6910     0.0214 H       
  28 H28           -3.2489    -0.4952     0.0545 H       
  29 H29           -2.2354    -0.2770     1.4914 H       
  30 H30            1.6015     2.9119     0.6457 H       
  31 H31            3.8560     0.0283     1.1916 H       
  32 H32            4.0032     0.3638    -0.5503 H       
  33 H33            5.3398     4.2508     1.2205 H       
  34 H34            5.8158     0.0711     0.4668 H       
  35 H35            8.2529     0.3077     0.7183 H       
  36 H36            9.2327     2.5103     1.2145 H       
  37 H37            7.7782     4.4799     1.4660 H       
  38 H38           -3.2415     2.5954    -1.9408 H       
  39 H39           -5.4405     3.6516    -2.2660 H       
  40 H40           -6.5432     2.5983     1.7212 H       
  41 H41           -4.3483     1.5350     2.0512 H       
@<TRIPOS>BOND
   1    1    2 1
   2    1    7 2
   3    1    6 1
   4    2    3 1
   5    2    9 1
   6    3    4 1
   7    3   26 1
   8    3   27 1
   9    4    5 1
  10    4   28 1
  11    4   29 1
  12    5    6 am
  13    5   13 1
  14    6   14 2
  15    7    8 1
  16    7   30 1
  17    8    9 2
  18    8   10 1
  19   10   11 1
  20   10   31 1
  21   10   32 1
  22   11   12 1
  23   12   15 ar
  24   12   16 ar
  25   13   20 ar
  26   13   24 ar
  27   15   19 ar
  28   15   33 1
  29   16   17 ar
  30   16   34 1
  31   17   18 ar
  32   17   35 1
  33   18   19 ar
  34   18   36 1
  35   19   37 1
  36   20   21 ar
  37   20   38 1
  38   21   22 ar
  39   21   39 1
  40   22   23 ar
  41   22   25 1
  42   23   24 ar
  43   23   40 1
  44   24   41 1

#	End of record

