#	Name: ASD00069204
#	Creating user name:	WinNT
#	Creation time:	15. 06. 2019 18:29

#	Modifying user name:	WinNT
#	Modification time:	15. 06. 2019 18:29

#	Program:	/corina/corina34_cracker 3.40 0067  02.08.2006

@<TRIPOS>MOLECULE
ASD00069204
  88   93    0    0    0
SMALL
NO_CHARGES


@<TRIPOS>ATOM
   1 N1             0.1406     1.4871    -0.0508 N.3     
   2 C2             0.1102     0.0190    -0.0438 C.3     
   3 C3             0.7785    -0.5124    -1.3139 C.3     
   4 C4             2.2250    -0.0135    -1.3707 C.3     
   5 C5             2.2308     1.5171    -1.3278 C.3     
   6 C6             1.5204     1.9896    -0.0573 C.3     
   7 C7             0.7663    -2.0193    -1.2961 C.2     
   8 O8             0.2719    -2.6107    -0.3598 O.2     
   9 N9             1.3049    -2.7097    -2.3206 N.am    
  10 C10           -2.2518     3.3616     1.8349 C.ar    
  11 N11           -1.5657     2.8629     0.8171 N.ar    
  12 C12           -0.5710     2.0037     1.0205 C.ar    
  13 C13           -0.2541     1.6293     2.3251 C.ar    
  14 C14           -0.9976     2.1744     3.3695 C.ar    
  15 N15           -1.9808     3.0303     3.0872 N.ar    
  16 C16            0.2260     0.8867     6.4961 C.2     
  17 N17            0.2571     0.9659     5.1852 N.2     
  18 C18           -0.6999     1.8087     4.7750 C.2     
  19 C19           -1.3577     2.2755     5.8917 C.2     
  20 N20           -0.7735     1.6949     6.9626 N.pl3   
  21 C21            1.1181     0.0576     7.3274 C.2     
  22 N22            2.0657    -0.7043     6.7460 N.am    
  23 O23            0.9987     0.0612     8.5378 O.2     
  24 C24            2.9891    -1.3985     7.5376 C.ar    
  25 C25            3.4712    -2.6407     7.1238 C.ar    
  26 C26            4.3854    -3.3227     7.9125 C.ar    
  27 C27            4.8165    -2.7713     9.1050 C.ar    
  28 C28            4.3385    -1.5407     9.5151 C.ar    
  29 C29            3.4314    -0.8507     8.7321 C.ar    
  30 N30            3.0332    -3.1968     5.9172 N.3     
  31 C31            1.6037    -3.5317     5.9798 C.3     
  32 C32            1.1465    -4.0617     4.6188 C.3     
  33 N33            1.9459    -5.2421     4.2620 N.3     
  34 C34            3.3754    -4.9073     4.1994 C.3     
  35 C35            3.8326    -4.3772     5.5605 C.3     
  36 N36           -3.2760     4.2575     1.5820 N.pl3   
  37 C37           -4.0473     4.8209     2.6928 C.3     
  38 C38            1.5061     3.5191    -0.0201 C.3     
  39 C39            1.2931    -4.1745    -2.3033 C.3     
  40 C40            1.3590    -4.7020    -3.7380 C.3     
  41 C41            1.3467    -6.2319    -3.7199 C.3     
  42 C42            2.5553    -6.7424    -2.9328 C.3     
  43 C43            2.4894    -6.2149    -1.4981 C.3     
  44 C44            2.5017    -4.6850    -1.5162 C.3     
  45 H45            0.6457    -0.3512     0.8304 H       
  46 H46           -0.9242    -0.3227    -0.0075 H       
  47 H47            0.2353    -0.1538    -2.1882 H       
  48 H48            2.7788    -0.4039    -0.5168 H       
  49 H49            2.6917    -0.3538    -2.2951 H       
  50 H50            3.2596     1.8772    -1.3248 H       
  51 H51            1.7104     1.9076    -2.2023 H       
  52 H52            2.0493     1.6102     0.8170 H       
  53 H53            1.7004    -2.2367    -3.0695 H       
  54 H54            0.5480     0.9333     2.5215 H       
  55 H55           -2.1824     2.9727     5.9080 H       
  56 H56           -1.0183     1.8269     7.8918 H       
  57 H57            2.1081    -0.7719     5.7793 H       
  58 H58            4.7604    -4.2846     7.5956 H       
  59 H59            5.5286    -3.3038     9.7180 H       
  60 H60            4.6782    -1.1147    10.4476 H       
  61 H61            3.0637     0.1127     9.0533 H       
  62 H62            1.4421    -4.2955     6.7405 H       
  63 H63            1.0318    -2.6390     6.2332 H       
  64 H64            0.0934    -4.3380     4.6711 H       
  65 H65            1.2828    -3.2883     3.8629 H       
  66 H66            1.7799    -5.9997     4.9074 H       
  67 H67            3.9473    -5.7999     3.9460 H       
  68 H68            3.5370    -4.1434     3.4387 H       
  69 H69            4.8857    -4.1010     5.5081 H       
  70 H70            3.6963    -5.1506     6.3163 H       
  71 H71           -3.4831     4.5124     0.6693 H       
  72 H72           -4.5323     4.0152     3.2439 H       
  73 H73           -3.3791     5.3661     3.3594 H       
  74 H74           -4.8043     5.5006     2.3016 H       
  75 H75            1.0010     3.8558     0.8852 H       
  76 H76            2.5302     3.8923    -0.0250 H       
  77 H77            0.9769     3.8989    -0.8941 H       
  78 H78            0.3763    -4.5249    -1.8292 H       
  79 H79            0.4980    -4.3384    -4.2988 H       
  80 H80            2.2758    -4.3517    -4.2122 H       
  81 H81            0.4299    -6.5823    -3.2457 H       
  82 H82            1.3937    -6.6077    -4.7420 H       
  83 H83            2.5465    -7.8323    -2.9199 H       
  84 H84            3.4721    -6.3920    -3.4070 H       
  85 H85            1.5726    -6.5652    -1.0239 H       
  86 H86            3.3504    -6.5786    -0.9373 H       
  87 H87            3.4185    -4.3347    -1.9904 H       
  88 H88            2.4547    -4.3092    -0.4941 H       
@<TRIPOS>BOND
   1    1    2 1
   2    1    6 1
   3    1   12 1
   4    2    3 1
   5    2   45 1
   6    2   46 1
   7    3    4 1
   8    3    7 1
   9    3   47 1
  10    4    5 1
  11    4   48 1
  12    4   49 1
  13    5    6 1
  14    5   50 1
  15    5   51 1
  16    6   38 1
  17    6   52 1
  18    7    8 2
  19    7    9 am
  20    9   39 1
  21    9   53 1
  22   10   11 ar
  23   10   15 ar
  24   10   36 1
  25   11   12 ar
  26   12   13 ar
  27   13   14 ar
  28   13   54 1
  29   14   15 ar
  30   14   18 1
  31   16   17 2
  32   16   20 1
  33   16   21 1
  34   17   18 1
  35   18   19 2
  36   19   20 1
  37   19   55 1
  38   20   56 1
  39   21   22 am
  40   21   23 2
  41   22   24 1
  42   22   57 1
  43   24   25 ar
  44   24   29 ar
  45   25   26 ar
  46   25   30 1
  47   26   27 ar
  48   26   58 1
  49   27   28 ar
  50   27   59 1
  51   28   29 ar
  52   28   60 1
  53   29   61 1
  54   30   31 1
  55   30   35 1
  56   31   32 1
  57   31   62 1
  58   31   63 1
  59   32   33 1
  60   32   64 1
  61   32   65 1
  62   33   34 1
  63   33   66 1
  64   34   35 1
  65   34   67 1
  66   34   68 1
  67   35   69 1
  68   35   70 1
  69   36   37 1
  70   36   71 1
  71   37   72 1
  72   37   73 1
  73   37   74 1
  74   38   75 1
  75   38   76 1
  76   38   77 1
  77   39   40 1
  78   39   44 1
  79   39   78 1
  80   40   41 1
  81   40   79 1
  82   40   80 1
  83   41   42 1
  84   41   81 1
  85   41   82 1
  86   42   43 1
  87   42   83 1
  88   42   84 1
  89   43   44 1
  90   43   85 1
  91   43   86 1
  92   44   87 1
  93   44   88 1

#	End of record

