#	Name: ASD05310002
#	Creating user name:	WinNT
#	Creation time:	15. 06. 2019 20:58

#	Modifying user name:	WinNT
#	Modification time:	15. 06. 2019 20:58

#	Program:	/corina/corina34_cracker 3.40 0067  02.08.2006

@<TRIPOS>MOLECULE
ASD05310002
  65   67    0    0    0
SMALL
NO_CHARGES


@<TRIPOS>ATOM
   1 C1             2.6030     1.3028     0.2984 C.ar    
   2 C2             1.6553     2.0797    -0.3886 C.ar    
   3 C3             1.9188     3.4091    -0.5685 C.ar    
   4 C4             3.1003     3.9556    -0.0754 C.ar    
   5 N5             3.9828     3.2269     0.5651 N.ar    
   6 C6             3.7879     1.9200     0.7698 C.ar    
   7 C7             4.7404     1.1443     1.4528 C.ar    
   8 C8             4.5199    -0.1839     1.6552 C.ar    
   9 C9             3.3598    -0.7997     1.1959 C.ar    
  10 C10            2.3998    -0.0754     0.5213 C.ar    
  11 N11            1.2415    -0.6999     0.0599 N.pl3   
  12 C12            1.2224    -2.0553    -0.1250 C.2     
  13 N13            0.0756    -2.7106    -0.0909 N.2     
  14 C14           -1.0679    -2.0588     0.2309 C.1     
  15 N15            2.3894    -2.7313    -0.3449 N.pl3   
  16 C16            2.3665    -4.1792    -0.5671 C.3     
  17 N17            2.5851    -4.4587    -1.9884 N.am    
  18 C18            3.4726    -4.8393     0.2585 C.3     
  19 C19            3.2444    -4.5474     1.7430 C.3     
  20 C20            3.4487    -6.3515     0.0265 C.3     
  21 C21            4.8310    -4.2793    -0.1684 C.3     
  22 C22            1.5527    -4.8384    -2.7671 C.2     
  23 C23            1.7775    -5.1259    -4.2292 C.3     
  24 O24            0.4426    -4.9486    -2.2911 O.2     
  25 C25            0.4733    -5.5274    -4.8686 C.ar    
  26 C26           -1.0961    -7.2313    -5.4817 C.ar    
  27 C27            0.0995    -6.8577    -4.8958 C.ar    
  28 C28           -0.3495    -4.5634    -5.4217 C.ar    
  29 C29           -1.5487    -4.9308    -6.0098 C.ar    
  30 C30           -1.9225    -6.2712    -6.0423 C.ar    
  31 O31           -3.0984    -6.6369    -6.6192 O.3     
  32 O32           -2.3592    -3.9839    -6.5538 O.3     
  33 N33           -2.0266    -1.5124     0.5007 N.1     
  34 C34           -3.4192    -8.0295    -6.6119 C.3     
  35 C35           -1.9116    -2.6286    -6.4837 C.3     
  36 H36            0.7440     1.6388    -0.7647 H       
  37 H37            1.2113     4.0345    -1.0927 H       
  38 H38            3.2956     5.0073    -0.2245 H       
  39 H39            5.6482     1.6021     1.8171 H       
  40 H40            5.2588    -0.7701     2.1812 H       
  41 H41            3.2098    -1.8550     1.3695 H       
  42 H42            0.4493    -0.1733    -0.1298 H       
  43 H43            3.2330    -2.2525    -0.3540 H       
  44 H44            1.3988    -4.5781    -0.2629 H       
  45 H45            3.4729    -4.3705    -2.3691 H       
  46 H46            2.2767    -4.9464     2.0471 H       
  47 H47            4.0324    -5.0177     2.3311 H       
  48 H48            3.2614    -3.4702     1.9082 H       
  49 H49            3.6114    -6.5594    -1.0310 H       
  50 H50            4.2368    -6.8218     0.6147 H       
  51 H51            2.4810    -6.7504     0.3307 H       
  52 H52            4.8480    -3.2020    -0.0031 H       
  53 H53            5.6190    -4.7496     0.4198 H       
  54 H54            4.9936    -4.4873    -1.2259 H       
  55 H55            2.1629    -4.2323    -4.7202 H       
  56 H56            2.4981    -5.9371    -4.3334 H       
  57 H57           -1.3856    -8.2716    -5.5023 H       
  58 H58            0.7427    -7.6072    -4.4589 H       
  59 H59           -0.0573    -3.5240    -5.3949 H       
  60 H60           -4.3805    -8.1835    -7.1021 H       
  61 H61           -2.6465    -8.5831    -7.1454 H       
  62 H62           -3.4752    -8.3840    -5.5827 H       
  63 H63           -2.6492    -1.9776    -6.9529 H       
  64 H64           -1.7851    -2.3413    -5.4398 H       
  65 H65           -0.9589    -2.5332    -7.0047 H       
@<TRIPOS>BOND
   1    1   10 ar
   2    1    2 ar
   3    1    6 ar
   4    2    3 ar
   5    2   36 1
   6    3    4 ar
   7    3   37 1
   8    4    5 ar
   9    4   38 1
  10    5    6 ar
  11    6    7 ar
  12    7    8 ar
  13    7   39 1
  14    8    9 ar
  15    8   40 1
  16    9   10 ar
  17    9   41 1
  18   10   11 1
  19   11   12 1
  20   11   42 1
  21   12   13 2
  22   12   15 1
  23   13   14 1
  24   14   33 3
  25   15   16 1
  26   15   43 1
  27   16   17 1
  28   16   18 1
  29   16   44 1
  30   17   22 am
  31   17   45 1
  32   18   19 1
  33   18   20 1
  34   18   21 1
  35   19   46 1
  36   19   47 1
  37   19   48 1
  38   20   49 1
  39   20   50 1
  40   20   51 1
  41   21   52 1
  42   21   53 1
  43   21   54 1
  44   22   23 1
  45   22   24 2
  46   23   25 1
  47   23   55 1
  48   23   56 1
  49   25   28 ar
  50   25   27 ar
  51   26   27 ar
  52   26   30 ar
  53   26   57 1
  54   27   58 1
  55   28   29 ar
  56   28   59 1
  57   29   30 ar
  58   29   32 1
  59   30   31 1
  60   31   34 1
  61   32   35 1
  62   34   60 1
  63   34   61 1
  64   34   62 1
  65   35   63 1
  66   35   64 1
  67   35   65 1

#	End of record

