#	Name: ASD02508410
#	Creating user name:	WinNT
#	Creation time:	15. 06. 2019 20:24

#	Modifying user name:	WinNT
#	Modification time:	15. 06. 2019 20:24

#	Program:	/corina/corina34_cracker 3.40 0067  02.08.2006

@<TRIPOS>MOLECULE
ASD02508410
  36   38    0    0    0
SMALL
NO_CHARGES


@<TRIPOS>ATOM
   1 N1            -0.2075     1.6926     0.3016 N.2     
   2 C2            -0.1695     0.3589     0.4402 C.2     
   3 C3             1.1189    -0.0305     0.4125 C.2     
   4 N4             1.8732     1.1039     0.2526 N.pl3   
   5 C5             1.0090     2.1509     0.1884 C.2     
   6 C6             3.2679     1.1707     0.1716 C.ar    
   7 C7             3.9620     2.0725     0.9706 C.ar    
   8 N8             3.9149     0.3715    -0.6605 N.ar    
   9 C9             5.2294     0.4013    -0.7679 C.ar    
  10 C10            5.9826     1.2754    -0.0090 C.ar    
  11 C11            5.3430     2.1277     0.8804 C.ar    
  12 S12            1.7206    -1.6805     0.5543 S.o2    
  13 O13            1.6685    -2.2402    -0.7508 O.2     
  14 O14            2.9144    -1.6077     1.3216 O.2     
  15 N15            0.6277    -2.5240     1.4688 N.am    
  16 C16            0.3793    -2.1416     2.7904 C.ar    
  17 C17           -0.9252    -2.0776     3.2619 C.ar    
  18 C18           -1.1695    -1.6996     4.5701 C.ar    
  19 C19           -0.1128    -1.3844     5.4099 C.ar    
  20 C20            1.1898    -1.4474     4.9405 C.ar    
  21 C21            1.4373    -1.8311     3.6345 C.ar    
  22 Cl22           3.1093     3.1154     2.0657 Cl      
  23 F23           -0.3528    -1.0150     6.6871 F       
  24 F24           -2.4386    -1.6373     5.0291 F       
  25 F25            2.2186    -1.1395     5.7602 F       
  26 C26            7.4836     1.2994    -0.1407 C.3     
  27 F27            7.8837     0.3517    -1.0889 F       
  28 F28            7.8955     2.5719    -0.5508 F       
  29 F29            8.0651     0.9967     1.0952 F       
  30 H30           -1.0249    -0.2905     0.5546 H       
  31 H31            1.2831     3.1880     0.0639 H       
  32 H32            5.7230    -0.2668    -1.4581 H       
  33 H33            5.9089     2.8206     1.4854 H       
  34 H34            0.1598    -3.2833     1.0875 H       
  35 H35           -1.7488    -2.3225     2.6075 H       
  36 H36            2.4524    -1.8802     3.2689 H       
@<TRIPOS>BOND
   1    1    2 1
   2    1    5 2
   3    2    3 2
   4    2   30 1
   5    3    4 1
   6    3   12 1
   7    4    5 1
   8    4    6 1
   9    5   31 1
  10    6    7 ar
  11    6    8 ar
  12    7   22 1
  13    7   11 ar
  14    8    9 ar
  15    9   10 ar
  16    9   32 1
  17   10   11 ar
  18   10   26 1
  19   11   33 1
  20   12   13 2
  21   12   14 2
  22   12   15 am
  23   15   16 1
  24   15   34 1
  25   16   17 ar
  26   16   21 ar
  27   17   18 ar
  28   17   35 1
  29   18   19 ar
  30   18   24 1
  31   19   20 ar
  32   19   23 1
  33   20   21 ar
  34   20   25 1
  35   21   36 1
  36   26   27 1
  37   26   28 1
  38   26   29 1

#	End of record

