#	Name: ASD01200249
#	Creating user name:	WinNT
#	Creation time:	15. 06. 2019 19:08

#	Modifying user name:	WinNT
#	Modification time:	15. 06. 2019 19:08

#	Program:	/corina/corina34_cracker 3.40 0067  02.08.2006

@<TRIPOS>MOLECULE
ASD01200249
  27   29    0    0    0
SMALL
NO_CHARGES


@<TRIPOS>ATOM
   1 C1            -0.0167     1.3783     0.0096 C.ar    
   2 C2             0.0021    -0.0041     0.0020 C.ar    
   3 C3             1.2151    -0.6716     0.0002 C.ar    
   4 C4             2.3971     0.0409     0.0060 C.ar    
   5 C5             2.3934     1.4278    -0.0132 C.ar    
   6 C6             1.1625     2.0909     0.0022 C.ar    
   7 S7             3.9370    -0.8285     0.0703 S.o2    
   8 N8             5.0839     0.3718    -0.1203 N.am    
   9 C9             4.7467     1.6575     0.5265 C.3     
  10 N10            3.5419     2.2033    -0.0849 N.3     
  11 C11            3.2846     3.5701     0.3879 C.3     
  12 O12            4.0757    -1.3263     1.3940 O.2     
  13 O13            3.9985    -1.6469    -1.0897 O.2     
  14 C14            3.0486     3.7665     1.8867 C.3     
  15 C15            4.3597     4.2332     1.2511 C.3     
  16 Cl16           1.2493    -2.4072    -0.0088 Cl      
  17 H17           -0.9609     1.9025     0.0169 H       
  18 H18           -0.9239    -0.5599    -0.0021 H       
  19 H19            1.1358     3.1705     0.0078 H       
  20 H20            5.9064     0.2355    -0.6161 H       
  21 H21            4.5733     1.4951     1.5903 H       
  22 H22            5.5711     2.3582     0.3946 H       
  23 H23            2.7252     4.2070    -0.2974 H       
  24 H24            2.3343     4.5330     2.1876 H       
  25 H25            3.0843     2.8816     2.5221 H       
  26 H26            5.2580     3.6553     1.4683 H       
  27 H27            4.5080     5.3067     1.1338 H       
@<TRIPOS>BOND
   1    1    2 ar
   2    1    6 ar
   3    1   17 1
   4    2    3 ar
   5    2   18 1
   6    3    4 ar
   7    3   16 1
   8    4    5 ar
   9    4    7 1
  10    5    6 ar
  11    5   10 1
  12    6   19 1
  13    7    8 am
  14    7   12 2
  15    7   13 2
  16    8    9 1
  17    8   20 1
  18    9   10 1
  19    9   21 1
  20    9   22 1
  21   10   11 1
  22   11   14 1
  23   11   15 1
  24   11   23 1
  25   14   15 1
  26   14   24 1
  27   14   25 1
  28   15   26 1
  29   15   27 1

#	End of record

