#	Name: ASD03240449
#	Creating user name:	WinNT
#	Creation time:	15. 06. 2019 20:35

#	Modifying user name:	WinNT
#	Modification time:	15. 06. 2019 20:35

#	Program:	/corina/corina34_cracker 3.40 0067  02.08.2006

@<TRIPOS>MOLECULE
ASD03240449
  41   43    0    0    0
SMALL
NO_CHARGES


@<TRIPOS>ATOM
   1 O1            -0.0164     1.3550     0.0095 O.3     
   2 C2             0.0437    -0.0027     0.0300 C.ar    
   3 C3             1.7841     3.7099    -2.0113 C.ar    
   4 C4             0.9239     3.3145    -1.0029 C.ar    
   5 C5             1.2071     2.0551    -0.2254 C.3     
   6 C6             1.5294     4.8626    -2.7266 C.ar    
   7 C7             0.4037     5.6281    -2.4313 C.ar    
   8 C8            -0.4591     5.2256    -1.4144 C.ar    
   9 C9            -0.1950     4.0712    -0.7053 C.ar    
  10 C10            0.1249     6.8692    -3.1971 C.2     
  11 C11           -1.1215    -0.7480     0.1358 C.ar    
  12 C12           -0.9349     7.7087    -3.0139 C.2     
  13 N13           -0.8194     8.7123    -3.9068 N.pl3   
  14 N14            0.3381     8.4936    -4.6636 N.2     
  15 C15            0.9097     7.3972    -4.2407 C.2     
  16 C16            1.8529     2.4167     1.1137 C.3     
  17 N17            2.2379     1.1873     1.8196 N.3     
  18 C18            2.8628     1.4964     3.1126 C.3     
  19 C19            1.2699    -0.6451    -0.0606 C.ar    
  20 C20            1.3289    -2.0251    -0.0395 C.ar    
  21 C21            0.1660    -2.7666     0.0718 C.ar    
  22 C22           -1.0584    -2.1278     0.1565 C.ar    
  23 Cl23           0.2427    -4.5007     0.0975 Cl      
  24 H24            2.6589     3.1180    -2.2365 H       
  25 H25            1.8851     1.4204    -0.7960 H       
  26 H26            2.2018     5.1706    -3.5136 H       
  27 H27           -1.3332     5.8155    -1.1815 H       
  28 H28           -0.8635     3.7580     0.0830 H       
  29 H29           -2.0774    -0.2497     0.2023 H       
  30 H30           -1.7235     7.5907    -2.2855 H       
  31 H31           -1.4325     9.4571    -4.0078 H       
  32 H32            1.8211     6.9670    -4.6287 H       
  33 H33            2.7387     3.0268     0.9369 H       
  34 H34            1.1414     2.9766     1.7207 H       
  35 H35            1.4447     0.5751     1.9384 H       
  36 H36            3.7556     2.1001     2.9497 H       
  37 H37            2.1583     2.0498     3.7335 H       
  38 H38            3.1380     0.5686     3.6141 H       
  39 H39            2.1778    -0.0667    -0.1478 H       
  40 H40            2.2834    -2.5256    -0.1104 H       
  41 H41           -1.9650    -2.7082     0.2437 H       
@<TRIPOS>BOND
   1    1    2 1
   2    1    5 1
   3    2   11 ar
   4    2   19 ar
   5    3    4 ar
   6    3    6 ar
   7    3   24 1
   8    4    5 1
   9    4    9 ar
  10    5   16 1
  11    5   25 1
  12    6    7 ar
  13    6   26 1
  14    7    8 ar
  15    7   10 1
  16    8    9 ar
  17    8   27 1
  18    9   28 1
  19   10   12 2
  20   10   15 1
  21   11   22 ar
  22   11   29 1
  23   12   13 1
  24   12   30 1
  25   13   14 1
  26   13   31 1
  27   14   15 2
  28   15   32 1
  29   16   17 1
  30   16   33 1
  31   16   34 1
  32   17   18 1
  33   17   35 1
  34   18   36 1
  35   18   37 1
  36   18   38 1
  37   19   20 ar
  38   19   39 1
  39   20   21 ar
  40   20   40 1
  41   21   22 ar
  42   21   23 1
  43   22   41 1

#	End of record

