#	Name: ASD02590032
#	Creating user name:	WinNT
#	Creation time:	15. 06. 2019 20:25

#	Modifying user name:	WinNT
#	Modification time:	15. 06. 2019 20:25

#	Program:	/corina/corina34_cracker 3.40 0067  02.08.2006

@<TRIPOS>MOLECULE
ASD02590032
  28   30    0    0    0
SMALL
NO_CHARGES


@<TRIPOS>ATOM
   1 C1            -0.0169     1.3970     0.0097 C.ar    
   2 C2             0.0021    -0.0041     0.0020 C.ar    
   3 C3            -1.1644    -0.7123     0.0089 C.ar    
   4 C4            -2.3855    -0.0476     0.0237 C.ar    
   5 C5            -2.4239     1.3606     0.0321 C.ar    
   6 C6            -1.2284     2.0806     0.0307 C.ar    
   7 N7            -3.6976    -0.4669     0.0331 N.pl3   
   8 C8            -4.4832     0.6546     0.0465 C.2     
   9 N9            -3.7291     1.7250     0.0459 N.2     
  10 C10           -5.9631     0.6565     0.0594 C.ar    
  11 C11           -6.6529     1.8678     0.0726 C.ar    
  12 C12           -8.0376     1.8532     0.0845 C.ar    
  13 C13           -8.6868     0.6275     0.0829 C.ar    
  14 C14           -7.9389    -0.5371     0.0695 C.ar    
  15 N15           -6.6233    -0.4957     0.0528 N.ar    
  16 C16            1.2532     2.1504     0.0016 C.2     
  17 O17            1.2390     3.3661     0.0083 O.2     
  18 N18            2.4282     1.4903    -0.0131 N.am    
  19 H19            0.9468    -0.5273    -0.0098 H       
  20 H20           -1.1390    -1.7920     0.0025 H       
  21 H21           -1.2437     3.1604     0.0371 H       
  22 H22           -4.0075    -1.3861     0.0303 H       
  23 H23           -6.1150     2.8043     0.0738 H       
  24 H24           -8.5993     2.7755     0.0952 H       
  25 H25           -9.7658     0.5822     0.0923 H       
  26 H26           -8.4417    -1.4930     0.0686 H       
  27 H27            2.4396     0.5204    -0.0184 H       
  28 H28            3.2625     1.9852    -0.0184 H       
@<TRIPOS>BOND
   1    1    2 ar
   2    1   16 1
   3    1    6 ar
   4    2    3 ar
   5    2   19 1
   6    3    4 ar
   7    3   20 1
   8    4    5 ar
   9    4    7 1
  10    5    6 ar
  11    5    9 1
  12    6   21 1
  13    7    8 1
  14    7   22 1
  15    8    9 2
  16    8   10 1
  17   10   11 ar
  18   10   15 ar
  19   11   12 ar
  20   11   23 1
  21   12   13 ar
  22   12   24 1
  23   13   14 ar
  24   13   25 1
  25   14   15 ar
  26   14   26 1
  27   16   17 2
  28   16   18 am
  29   18   27 1
  30   18   28 1

#	End of record

