#	Name: ASD03731508
#	Creating user name:	WinNT
#	Creation time:	15. 06. 2019 20:45

#	Modifying user name:	WinNT
#	Modification time:	15. 06. 2019 20:45

#	Program:	/corina/corina34_cracker 3.40 0067  02.08.2006

@<TRIPOS>MOLECULE
ASD03731508
  61   66    0    0    0
SMALL
NO_CHARGES


@<TRIPOS>ATOM
   1 C1            -0.0180     1.4742     0.0101 C.2     
   2 C2             0.0021    -0.0041     0.0020 C.ar    
   3 C3             1.2184    -0.6885    -0.0133 C.ar    
   4 C4             1.2301    -2.0680    -0.0203 C.ar    
   5 C5             0.0396    -2.7730    -0.0127 C.ar    
   6 C6            -1.1695    -2.1007     0.0024 C.ar    
   7 C7            -1.1952    -0.7214     0.0154 C.ar    
   8 O8             1.0263     2.0963     0.0035 O.2     
   9 N9            -1.1942     2.1322     0.0193 N.am    
  10 C10           -2.4613    -2.8768     0.0106 C.3     
  11 F11           -2.8484    -3.1240     1.3321 F       
  12 F12           -3.4555    -2.1343    -0.6354 F       
  13 F13           -2.2791    -4.0925    -0.6572 F       
  14 C14            2.5424    -2.8087    -0.0368 C.3     
  15 F15            3.5968    -1.8892    -0.0425 F       
  16 F16            2.6355    -3.6179     1.1006 F       
  17 F17            2.6132    -3.6065    -1.1839 F       
  18 C18           -1.2141     3.5970     0.0274 C.3     
  19 C19           -2.6633     4.0874     0.0369 C.3     
  20 C20           -2.6841     5.6172     0.0453 C.3     
  21 O21           -8.8975     2.7108     2.1987 O.3     
  22 C22          -10.3146     2.7643     2.4479 C.3     
  23 O23          -10.5198     4.0886     2.9742 O.3     
  24 C24           -9.5162     4.8508     2.4482 C.ar    
  25 C25           -8.5185     4.0030     1.9724 C.ar    
  26 C26           -9.3713     6.2218     2.3342 C.ar    
  27 C27           -8.2319     6.7640     1.7474 C.ar    
  28 C28           -7.2384     5.9072     1.2833 C.ar    
  29 C29           -7.3826     4.5396     1.3900 C.ar    
  30 O30           -7.9029     8.0687     1.5241 O.3     
  31 C31           -6.1399     6.7799     0.7376 C.3     
  32 C32           -6.4843     8.1682     1.2937 C.3     
  33 N33           -4.0718     6.0867     0.0544 N.am    
  34 C34           -4.7791     6.3222     1.1775 C.2     
  35 C35           -6.0966     6.7726    -0.7617 C.ar    
  36 C36           -7.0122     7.0855    -1.7415 C.ar    
  37 C37           -6.6638     6.9761    -3.0759 C.ar    
  38 C38           -5.3943     6.5512    -3.4232 C.ar    
  39 C39           -4.4740     6.2356    -2.4455 C.ar    
  40 C40           -4.8159     6.3432    -1.0997 C.ar    
  41 O41           -4.3921     6.1907     2.3194 O.2     
  42 H42            2.1484    -0.1393    -0.0199 H       
  43 H43            0.0543    -3.8529    -0.0190 H       
  44 H44           -2.1396    -0.1978     0.0318 H       
  45 H45           -2.0276     1.6358     0.0206 H       
  46 H46           -0.7010     3.9625     0.9169 H       
  47 H47           -0.7094     3.9721    -0.8630 H       
  48 H48           -3.1764     3.7219    -0.8527 H       
  49 H49           -3.1680     3.7122     0.9273 H       
  50 H50           -2.1710     5.9826     0.9349 H       
  51 H51           -2.1795     5.9923    -0.8450 H       
  52 H52          -10.8718     2.6300     1.5208 H       
  53 H53          -10.6031     2.0116     3.1817 H       
  54 H54          -10.1476     6.8758     2.7030 H       
  55 H55           -6.6074     3.8857     1.0187 H       
  56 H56           -6.2647     8.9443     0.5606 H       
  57 H57           -5.9526     8.3542     2.2270 H       
  58 H58           -8.0031     7.4170    -1.4680 H       
  59 H59           -7.3814     7.2223    -3.8446 H       
  60 H60           -5.1224     6.4656    -4.4649 H       
  61 H61           -3.4848     5.9040    -2.7246 H       
@<TRIPOS>BOND
   1    1    2 1
   2    1    8 2
   3    1    9 am
   4    2    3 ar
   5    2    7 ar
   6    3    4 ar
   7    3   42 1
   8    4    5 ar
   9    4   14 1
  10    5    6 ar
  11    5   43 1
  12    6    7 ar
  13    6   10 1
  14    7   44 1
  15    9   18 1
  16    9   45 1
  17   10   11 1
  18   10   12 1
  19   10   13 1
  20   14   15 1
  21   14   16 1
  22   14   17 1
  23   18   19 1
  24   18   46 1
  25   18   47 1
  26   19   20 1
  27   19   48 1
  28   19   49 1
  29   20   33 1
  30   20   50 1
  31   20   51 1
  32   21   22 1
  33   21   25 1
  34   22   23 1
  35   22   52 1
  36   22   53 1
  37   23   24 1
  38   24   25 ar
  39   24   26 ar
  40   25   29 ar
  41   26   27 ar
  42   26   54 1
  43   27   28 ar
  44   27   30 1
  45   28   29 ar
  46   28   31 1
  47   29   55 1
  48   30   32 1
  49   31   32 1
  50   31   34 1
  51   31   35 1
  52   32   56 1
  53   32   57 1
  54   33   34 am
  55   33   40 1
  56   34   41 2
  57   35   36 ar
  58   35   40 ar
  59   36   37 ar
  60   36   58 1
  61   37   38 ar
  62   37   59 1
  63   38   39 ar
  64   38   60 1
  65   39   40 ar
  66   39   61 1

#	End of record

