#	Name: ASD04882052
#	Creating user name:	WinNT
#	Creation time:	15. 06. 2019 20:54

#	Modifying user name:	WinNT
#	Modification time:	15. 06. 2019 20:54

#	Program:	/corina/corina34_cracker 3.40 0067  02.08.2006

@<TRIPOS>MOLECULE
ASD04882052
  67   69    0    0    0
SMALL
NO_CHARGES


@<TRIPOS>ATOM
   1 N1            -0.0094     1.3950     0.0811 N.pl3   
   2 C2             0.0058    -0.0047     0.0377 C.ar    
   3 C3             1.2158    -0.6864    -0.1187 C.ar    
   4 C4             1.2326    -2.0754    -0.1619 C.ar    
   5 C5             0.0573    -2.7854    -0.0509 C.ar    
   6 C6            -1.1560    -2.1101     0.1061 C.ar    
   7 C7            -1.1749    -0.7130     0.1552 C.ar    
   8 N8             2.4070     0.0277    -0.2319 N.3     
   9 C9             2.4411     0.8003    -1.4808 C.3     
  10 C10            3.5684    -0.8657    -0.1261 C.3     
  11 C11            4.8502    -0.0276    -0.0731 C.3     
  12 N12            4.8651     0.8772    -1.2326 N.am    
  13 C13            3.6767     1.7067    -1.4834 C.3     
  14 C14            5.9394     0.9447    -2.0436 C.2     
  15 O15            5.9340     1.7792    -3.1001 O.3     
  16 O16            6.9130     0.2524    -1.8212 O.2     
  17 C17           -2.4147    -2.8706     0.2245 C.2     
  18 N18           -2.3948    -4.2175     0.1812 N.am    
  19 O19           -3.4700    -2.2821     0.3611 O.2     
  20 C20           -3.6447    -4.9726     0.2988 C.3     
  21 C21           -3.3448    -6.4708     0.2194 C.3     
  22 C22           -4.6501    -7.2595     0.3422 C.3     
  23 N23           -4.3630    -8.6940     0.2661 N.am    
  24 C24           -4.0653    -9.5416     1.4267 C.3     
  25 C25           -3.4165   -10.8189     0.8487 C.3     
  26 C26           -3.9994   -10.8482    -0.5832 C.3     
  27 C27           -4.3439    -9.4043    -0.8749 C.2     
  28 O28           -4.5636    -8.9519    -1.9785 O.2     
  29 C29            7.1251     1.7997    -3.9302 C.3     
  30 C30            7.3670     0.4044    -4.5096 C.3     
  31 C31            6.9340     2.8000    -5.0720 C.3     
  32 C32            8.3296     2.2161    -3.0836 C.3     
  33 H33            0.8252     1.8884     0.1093 H       
  34 H34           -0.8545     1.8711     0.0788 H       
  35 H35            2.1692    -2.5993    -0.2832 H       
  36 H36            0.0736    -3.8647    -0.0856 H       
  37 H37           -2.1111    -0.1883     0.2764 H       
  38 H38            2.4888     0.1179    -2.3295 H       
  39 H39            1.5415     1.4114    -1.5551 H       
  40 H40            3.4864    -1.4628     0.7821 H       
  41 H41            3.6004    -1.5248    -0.9936 H       
  42 H42            4.8681     0.5563     0.8471 H       
  43 H43            5.7191    -0.6846    -0.1102 H       
  44 H44            3.7697     2.1962    -2.4528 H       
  45 H45            3.5818     2.4572    -0.6986 H       
  46 H46           -1.5530    -4.6869     0.0723 H       
  47 H47           -4.1171    -4.7468     1.2548 H       
  48 H48           -4.3159    -4.6929    -0.5132 H       
  49 H49           -2.8724    -6.6967    -0.7366 H       
  50 H50           -2.6736    -6.7505     1.0314 H       
  51 H51           -5.1225    -7.0336     1.2982 H       
  52 H52           -5.3213    -6.9798    -0.4698 H       
  53 H53           -3.3696    -9.0347     2.0955 H       
  54 H54           -4.9843    -9.7920     1.9566 H       
  55 H55           -2.3305   -10.7288     0.8261 H       
  56 H56           -3.7217   -11.7006     1.4122 H       
  57 H57           -3.2559   -11.2163    -1.2902 H       
  58 H58           -4.8975   -11.4650    -0.6169 H       
  59 H59            6.5089     0.1077    -5.1128 H       
  60 H60            8.2612     0.4198    -5.1327 H       
  61 H61            7.5032    -0.3082    -3.6962 H       
  62 H62            6.7617     3.7940    -4.6592 H       
  63 H63            7.8282     2.8153    -5.6951 H       
  64 H64            6.0759     2.5033    -5.6751 H       
  65 H65            8.4658     1.5035    -2.2701 H       
  66 H66            9.2238     2.2315    -3.7067 H       
  67 H67            8.1573     3.2101    -2.6708 H       
@<TRIPOS>BOND
   1    1    2 1
   2    1   33 1
   3    1   34 1
   4    2    3 ar
   5    2    7 ar
   6    3    4 ar
   7    3    8 1
   8    4    5 ar
   9    4   35 1
  10    5    6 ar
  11    5   36 1
  12    6    7 ar
  13    6   17 1
  14    7   37 1
  15    8    9 1
  16    8   10 1
  17    9   13 1
  18    9   38 1
  19    9   39 1
  20   10   11 1
  21   10   40 1
  22   10   41 1
  23   11   12 1
  24   11   42 1
  25   11   43 1
  26   12   13 1
  27   12   14 am
  28   13   44 1
  29   13   45 1
  30   14   15 1
  31   14   16 2
  32   15   29 1
  33   17   18 am
  34   17   19 2
  35   18   20 1
  36   18   46 1
  37   20   21 1
  38   20   47 1
  39   20   48 1
  40   21   22 1
  41   21   49 1
  42   21   50 1
  43   22   23 1
  44   22   51 1
  45   22   52 1
  46   23   24 1
  47   23   27 am
  48   24   25 1
  49   24   53 1
  50   24   54 1
  51   25   26 1
  52   25   55 1
  53   25   56 1
  54   26   27 1
  55   26   57 1
  56   26   58 1
  57   27   28 2
  58   29   30 1
  59   29   31 1
  60   29   32 1
  61   30   59 1
  62   30   60 1
  63   30   61 1
  64   31   62 1
  65   31   63 1
  66   31   64 1
  67   32   65 1
  68   32   66 1
  69   32   67 1

#	End of record

