#	Name: ASD01917333
#	Creating user name:	WinNT
#	Creation time:	15. 06. 2019 20:09

#	Modifying user name:	WinNT
#	Modification time:	15. 06. 2019 20:09

#	Program:	/corina/corina34_cracker 3.40 0067  02.08.2006

@<TRIPOS>MOLECULE
ASD01917333
  53   57    0    0    0
SMALL
NO_CHARGES


@<TRIPOS>ATOM
   1 C1            -0.0323     1.3936     0.0826 C.ar    
   2 C2            -0.0219    -0.0202     0.1085 C.ar    
   3 C3            -1.2200    -0.7323     0.1582 C.ar    
   4 C4            -2.4083    -0.0615     0.1684 C.ar    
   5 C5            -2.4361     1.3390     0.1271 C.ar    
   6 C6            -1.2523     2.0677     0.0858 C.ar    
   7 N7             1.1487     2.0513     0.0658 N.2     
   8 C8             2.3050     1.4359     0.0450 C.2     
   9 N9             2.3975     0.0848    -0.0402 N.am    
  10 C10            1.2824    -0.6884     0.0670 C.2     
  11 O11            1.3658    -1.9014     0.1272 O.2     
  12 C12           -3.7328     2.0467     0.1271 C.2     
  13 C13           -4.7689     1.9764    -0.9710 C.3     
  14 N14           -5.6648     3.1344    -0.7429 N.3     
  15 C15           -5.5384     3.3723     0.7143 C.3     
  16 C16           -4.1754     2.8406     1.0936 C.2     
  17 C17           -6.9823     2.8234    -1.0868 C.ar    
  18 C18           -7.5989     1.7050    -0.5405 C.ar    
  19 C19           -8.9019     1.4006    -0.8823 C.ar    
  20 C20           -9.5927     2.2078    -1.7675 C.ar    
  21 C21           -8.9819     3.3220    -2.3133 C.ar    
  22 C22           -7.6809     3.6351    -1.9716 C.ar    
  23 C23            3.5256     2.3090     0.1728 C.3     
  24 C24            4.7809     1.6363    -0.3372 C.3     
  25 C25            4.8739     0.1892     0.1016 C.3     
  26 C26            3.6542    -0.6108    -0.2960 C.3     
  27 C27            6.1120    -0.4439    -0.5365 C.3     
  28 C28            5.0240     0.1412     1.6235 C.3     
  29 H29           -1.2073    -1.8118     0.1881 H       
  30 H30           -3.3351    -0.6146     0.2083 H       
  31 H31           -1.2780     3.1470     0.0567 H       
  32 H32           -4.2903     2.0561    -1.9470 H       
  33 H33           -5.3308     1.0450    -0.9005 H       
  34 H34           -5.6037     4.4388     0.9296 H       
  35 H35           -6.3144     2.8294     1.2539 H       
  36 H36           -3.6432     3.0752     2.0036 H       
  37 H37           -7.0598     1.0740     0.1506 H       
  38 H38           -9.3818     0.5310    -0.4582 H       
  39 H39          -10.6115     1.9674    -2.0334 H       
  40 H40           -9.5242     3.9503    -3.0043 H       
  41 H41           -7.2046     4.5056    -2.3979 H       
  42 H42            3.3631     3.2261    -0.3934 H       
  43 H43            3.6659     2.5662     1.2226 H       
  44 H44            4.7862     1.6765    -1.4265 H       
  45 H45            5.6495     2.1765     0.0392 H       
  46 H46            3.6545    -1.5482     0.2602 H       
  47 H47            3.7173    -0.8388    -1.3600 H       
  48 H48            7.0026     0.0963    -0.2155 H       
  49 H49            6.1878    -1.4862    -0.2265 H       
  50 H50            6.0276    -0.3929    -1.6220 H       
  51 H51            4.1583     0.6123     2.0890 H       
  52 H52            5.0918    -0.8968     1.9493 H       
  53 H53            5.9288     0.6738     1.9163 H       
@<TRIPOS>BOND
   1    1    2 ar
   2    1    7 1
   3    1    6 ar
   4    2    3 ar
   5    2   10 1
   6    3    4 ar
   7    3   29 1
   8    4    5 ar
   9    4   30 1
  10    5    6 ar
  11    5   12 1
  12    6   31 1
  13    7    8 2
  14    8    9 1
  15    8   23 1
  16    9   10 am
  17    9   26 1
  18   10   11 2
  19   12   13 1
  20   12   16 2
  21   13   14 1
  22   13   32 1
  23   13   33 1
  24   14   15 1
  25   14   17 1
  26   15   16 1
  27   15   34 1
  28   15   35 1
  29   16   36 1
  30   17   18 ar
  31   17   22 ar
  32   18   19 ar
  33   18   37 1
  34   19   20 ar
  35   19   38 1
  36   20   21 ar
  37   20   39 1
  38   21   22 ar
  39   21   40 1
  40   22   41 1
  41   23   24 1
  42   23   42 1
  43   23   43 1
  44   24   25 1
  45   24   44 1
  46   24   45 1
  47   25   26 1
  48   25   27 1
  49   25   28 1
  50   26   46 1
  51   26   47 1
  52   27   48 1
  53   27   49 1
  54   27   50 1
  55   28   51 1
  56   28   52 1
  57   28   53 1

#	End of record

