#	Name: ASD01900347
#	Creating user name:	WinNT
#	Creation time:	15. 06. 2019 19:51

#	Modifying user name:	WinNT
#	Modification time:	15. 06. 2019 19:51

#	Program:	/corina/corina34_cracker 3.40 0067  02.08.2006

@<TRIPOS>MOLECULE
ASD01900347
  50   53    0    0    0
SMALL
NO_CHARGES


@<TRIPOS>ATOM
   1 C1            -0.0168     1.3891     0.0097 C.ar    
   2 C2             0.0021    -0.0041     0.0020 C.ar    
   3 C3             1.2224    -0.6606    -0.0132 C.ar    
   4 C4             2.3820     0.0992    -0.0202 C.ar    
   5 C5             2.2884     1.4815    -0.0119 C.ar    
   6 N6             1.1169     2.0792     0.0026 N.ar    
   7 C7            -1.3131     2.1060     0.0197 C.2     
   8 O8            -2.3544     1.4790     0.0212 O.2     
   9 N9            -1.3378     3.4535     0.0271 N.am    
  10 N10           -4.0866     5.7298     0.0525 N.am    
  11 C11           -2.7427     5.4762     0.0448 C.2     
  12 C12           -2.5683     4.1341     0.0367 C.2     
  13 C13           -3.8517     3.5436     0.0395 C.2     
  14 C14           -4.7569     4.5428     0.0492 C.2     
  15 S15           -4.7846     7.2314     0.0702 S.o2    
  16 O16           -6.0849     7.0631     0.6180 O.2     
  17 O17           -3.8183     8.1166     0.6197 O.2     
  18 C18           -6.5377     8.2761    -6.3167 C.3     
  19 C19           -7.8459     8.2996    -5.5156 C.3     
  20 C20           -7.6622     7.4298    -4.2696 C.3     
  21 C21           -6.3693     7.7918    -3.5837 C.ar    
  22 C22           -6.1841     7.4090    -2.2655 C.ar    
  23 C23           -5.0109     7.7211    -1.6072 C.ar    
  24 C24           -4.0140     8.4185    -2.2646 C.ar    
  25 C25           -4.1932     8.8033    -3.5774 C.ar    
  26 C26           -5.3749     8.4926    -4.2431 C.ar    
  27 O27           -5.5181     8.8964    -5.5322 O.3     
  28 C28           -6.1454     6.8287    -6.6203 C.3     
  29 C29           -6.7211     9.0465    -7.6258 C.3     
  30 H30           -0.9212    -0.5644     0.0082 H       
  31 H31            1.2690    -1.7395    -0.0191 H       
  32 H32            3.3489    -0.3818    -0.0317 H       
  33 H33            3.1898     2.0763    -0.0170 H       
  34 H34           -0.5068     3.9539     0.0259 H       
  35 H35           -1.9574     6.2177     0.0448 H       
  36 H36           -4.0681     2.4856     0.0351 H       
  37 H37           -5.8302     4.4231     0.0537 H       
  38 H38           -8.0765     9.3228    -5.2187 H       
  39 H39           -8.6571     7.9017    -6.1252 H       
  40 H40           -8.4944     7.5956    -3.5855 H       
  41 H41           -7.6366     6.3797    -4.5608 H       
  42 H42           -6.9612     6.8643    -1.7499 H       
  43 H43           -3.0956     8.6615    -1.7508 H       
  44 H44           -3.4138     9.3477    -4.0899 H       
  45 H45           -6.9344     6.3529    -7.2026 H       
  46 H46           -5.2158     6.8160    -7.1893 H       
  47 H47           -6.0065     6.2861    -5.6852 H       
  48 H48           -6.9911    10.0791    -7.4049 H       
  49 H49           -5.7899     9.0275    -8.1920 H       
  50 H50           -7.5130     8.5816    -8.2131 H       
@<TRIPOS>BOND
   1    1    2 ar
   2    1    6 ar
   3    1    7 1
   4    2    3 ar
   5    2   30 1
   6    3    4 ar
   7    3   31 1
   8    4    5 ar
   9    4   32 1
  10    5    6 ar
  11    5   33 1
  12    7    8 2
  13    7    9 am
  14    9   12 1
  15    9   34 1
  16   10   11 1
  17   10   14 1
  18   10   15 am
  19   11   12 2
  20   11   35 1
  21   12   13 1
  22   13   14 2
  23   13   36 1
  24   14   37 1
  25   15   16 2
  26   15   17 2
  27   15   23 1
  28   18   19 1
  29   18   27 1
  30   18   28 1
  31   18   29 1
  32   19   20 1
  33   19   38 1
  34   19   39 1
  35   20   21 1
  36   20   40 1
  37   20   41 1
  38   21   22 ar
  39   21   26 ar
  40   22   23 ar
  41   22   42 1
  42   23   24 ar
  43   24   25 ar
  44   24   43 1
  45   25   26 ar
  46   25   44 1
  47   26   27 1
  48   28   45 1
  49   28   46 1
  50   28   47 1
  51   29   48 1
  52   29   49 1
  53   29   50 1

#	End of record

