#	Name: ASD04570003
#	Creating user name:	WinNT
#	Creation time:	15. 06. 2019 20:49

#	Modifying user name:	WinNT
#	Modification time:	15. 06. 2019 20:49

#	Program:	/corina/corina34_cracker 3.40 0067  02.08.2006

@<TRIPOS>MOLECULE
ASD04570003
 281  286    0    0    0
SMALL
NO_CHARGES


@<TRIPOS>ATOM
   1 C1            -3.2825     8.3561    -5.5982 C.3     
   2 C2            -1.9383     7.6531    -5.7973 C.3     
   3 C3            -0.8859     8.6723    -6.1507 C.2     
   4 N4            -1.5568     6.9654    -4.5565 N.3     
   5 O5             0.0234     8.8972    -5.3803 O.2     
   6 C6            -4.3747     7.3108    -5.3625 C.3     
   7 C7            -5.6940     8.0155    -5.0401 C.3     
   8 C8            -4.5459     6.4592    -6.6220 C.3     
   9 C9            -2.0243     6.1453    -1.7874 C.3     
  10 C10           -1.0362     7.2306    -2.2195 C.3     
  11 C11            0.3057     6.6051    -2.5007 C.2     
  12 N12           -1.5334     7.8898    -3.4344 N.3     
  13 O13            0.7699     6.6435    -3.6205 O.2     
  14 O14           -2.0480     5.1052    -2.7670 O.3     
  15 C15            3.3856     6.4733    -1.3640 C.3     
  16 C16            2.3217     5.4501    -1.7665 C.3     
  17 C17            2.5072     4.1895    -0.9618 C.2     
  18 N18            0.9899     6.0030    -1.5078 N.am    
  19 O19            1.6149     3.7920    -0.2430 O.2     
  20 C20            3.2904     7.6777    -2.2648 C.ar    
  21 C21            2.5021     8.7530    -1.8985 C.ar    
  22 C22            2.4132     9.8582    -2.7224 C.ar    
  23 C23            3.1156     9.8887    -3.9184 C.ar    
  24 C24            3.9058     8.8085    -4.2837 C.ar    
  25 C25            3.9959     7.7080    -3.4536 C.ar    
  26 O26            3.0294    10.9746    -4.7309 O.3     
  27 C27            3.2601     1.0919    -1.0272 C.3     
  28 C28            3.8453     2.2784    -0.2587 C.3     
  29 C29            5.3151     2.0466    -0.0200 C.2     
  30 N30            3.6648     3.5038    -1.0409 N.am    
  31 O31            6.1315     2.8281    -0.4600 O.2     
  32 N32           -0.2888     0.2493    -2.0575 N.pl3   
  33 C33           -1.0355    -0.6994    -2.7152 C.2     
  34 N34           -2.3253    -0.5498    -2.8290 N.2     
  35 N35           -0.4217    -1.8060    -3.2527 N.pl3   
  36 C36            1.7461     1.2676    -1.1609 C.3     
  37 C37            1.1609     0.0811    -1.9295 C.3     
  38 C38            7.5988     1.5358     2.1457 C.3     
  39 C39            7.1512     0.7455     0.9145 C.3     
  40 C40            7.3973    -0.7235     1.1437 C.2     
  41 N41            5.7223     0.9708     0.6824 N.am    
  42 O42            6.4735    -1.4560     1.4279 O.2     
  43 S43            7.4608     3.3125     1.8068 S.3     
  44 C44            3.2197   -19.2656     6.3027 C.3     
  45 C45            3.2064   -18.5345     7.6467 C.3     
  46 C46            3.4356   -19.5246     8.7594 C.2     
  47 N47            4.2685   -17.5256     7.6643 N.am    
  48 O48            4.3919   -19.3998     9.4948 O.2     
  49 C49            2.8638   -18.2838     5.1845 C.3     
  50 C50            2.8769   -19.0039     3.8608 C.2     
  51 O51            3.1435   -20.1815     3.8163 O.2     
  52 O52            2.5924   -18.3370     2.7311 O.3     
  53 C53            2.1945   -20.9706    11.3158 C.3     
  54 C54            2.8006   -21.5113    10.0192 C.3     
  55 C55            2.1465   -22.8226     9.6675 C.2     
  56 N56            2.5778   -20.5488     8.9375 N.am    
  57 O57            1.5526   -22.9414     8.6167 O.2     
  58 O58            0.7752   -20.8801    11.1767 O.3     
  59 C59            2.2902   -26.2749    10.9215 C.3     
  60 C60            1.5855   -25.1379    10.1787 C.3     
  61 C61            0.1337   -25.0990    10.5811 C.2     
  62 N62            2.2214   -23.8632    10.5206 N.am    
  63 O63           -0.3227   -24.1086    11.0999 O.2     
  64 C64            3.7096   -26.3927    10.4291 C.2     
  65 N65            4.8190   -25.8236    10.9938 N.pl3   
  66 C66            5.8799   -26.1817    10.2389 C.2     
  67 N67            5.4604   -26.9322     9.2571 N.2     
  68 C68            4.1311   -27.0829     9.3523 C.2     
  69 C69            1.2986     9.7888    -8.1563 C.3     
  70 C70            0.0034    10.4012    -7.6194 C.3     
  71 C71           -0.5808    11.3279    -8.6542 C.2     
  72 N72           -0.9552     9.3338    -7.3229 N.am    
  73 O73           -1.4868    10.9484    -9.3656 O.2     
  74 C74            1.0106     9.0552    -9.4677 C.3     
  75 C75            2.2769     8.3377    -9.9395 C.3     
  76 C76            1.9583     7.5060   -11.1835 C.3     
  77 N77            3.1961     6.9111   -11.7050 N.3     
  78 C78            1.0694    13.1268    -8.0811 C.3     
  79 C79            1.2630    14.5771    -8.5718 C.3     
  80 C80           -0.6477    13.6227    -9.6718 C.3     
  81 C81           -1.1383    13.0148   -10.9606 C.2     
  82 N82           -0.0965    12.5784    -8.7892 N.am    
  83 O83           -0.6621    11.9733   -11.3597 O.2     
  84 C84            0.5401    14.5789    -9.9446 C.3     
  85 C85            9.8628    -0.4387     0.7855 C.3     
  86 C86           11.0476    -1.4273     0.7648 C.3     
  87 C87            9.0119    -2.6467     1.1402 C.3     
  88 C88            8.1715    -3.3278     2.1894 C.2     
  89 N89            8.6441    -1.2232     1.0328 N.am    
  90 O90            7.7069    -2.6840     3.1062 O.2     
  91 C91           10.5020    -2.6405     1.5634 C.3     
  92 C92            5.6395    -5.1783     2.7647 C.3     
  93 C93            7.1192    -5.3146     3.1289 C.3     
  94 C94            7.4872    -6.7744     3.1976 C.2     
  95 N95            7.9362    -4.6525     2.1089 N.am    
  96 O96            8.3473    -7.2180     2.4665 O.2     
  97 S97            5.1965    -3.4211     2.6821 S.3     
  98 C98            8.4247    -9.1849     5.0621 C.3     
  99 C99            7.2184    -9.0060     4.1382 C.3     
 100 C100           6.0518    -9.7933     4.6769 C.2     
 101 N101           6.8606    -7.5869     4.0714 N.am    
 102 O102           5.0229    -9.2251     4.9757 O.2     
 103 N103          12.0151    -8.0011     4.7906 N.pl3   
 104 C104          13.2228    -8.0276     5.4469 C.2     
 105 N105          13.3304    -8.6457     6.5894 N.2     
 106 N106          14.3172    -7.4020     4.8981 N.pl3   
 107 C107           9.6426    -8.4888     4.4514 C.3     
 108 C108          10.8489    -8.6677     5.3754 C.3     
 109 C109           4.0646   -12.2417     4.2052 C.3     
 110 C110           5.0179   -11.8944     5.3504 C.3     
 111 C111           5.5204   -13.1639     5.9883 C.2     
 112 N112           6.1519   -11.1290     4.8267 N.am    
 113 O113           6.7088   -13.4056     6.0039 O.2     
 114 C114           3.4674   -10.9756     3.6472 C.ar    
 115 C115           4.0987   -10.3112     2.6124 C.ar    
 116 C116           3.5509    -9.1498     2.1006 C.ar    
 117 C117           2.3716    -8.6530     2.6233 C.ar    
 118 C118           1.7398    -9.3179     3.6575 C.ar    
 119 C119           2.2853   -10.4817     4.1664 C.ar    
 120 C120           5.5477   -14.9813     8.6080 C.3     
 121 C121           5.1376   -15.2649     7.1615 C.3     
 122 C122           4.0451   -16.3028     7.1434 C.2     
 123 N123           4.6491   -14.0308     6.5414 N.am    
 124 O124           2.9648   -16.0376     6.6601 O.2     
 125 C125           6.7218   -14.0366     8.6212 C.ar    
 126 C126           6.5099   -12.6711     8.6572 C.ar    
 127 C127           7.5869   -11.8046     8.6693 C.ar    
 128 C128           8.8758   -12.3037     8.6458 C.ar    
 129 C129           9.0877   -13.6692     8.6108 C.ar    
 130 C130           8.0107   -14.5358     8.6031 C.ar    
 131 C131          -3.6670    12.0016   -12.6176 C.3     
 132 C132          -2.5833    13.0377   -12.9224 C.3     
 133 C133          -3.1555    14.1192   -13.8021 C.2     
 134 N134          -2.1063    13.6286   -11.6696 N.am    
 135 O135          -3.3544    15.2268   -13.3498 O.2     
 136 C136          -3.0616    10.8538   -11.8070 C.3     
 137 C137          -4.7888    12.6591   -11.8114 C.3     
 138 C138          -3.5711    14.5739   -17.4259 C.3     
 139 C139          -3.8991    14.9327   -15.9752 C.3     
 140 C140          -5.3880    15.1123   -15.8265 C.2     
 141 N141          -3.4464    13.8556   -15.0914 N.am    
 142 O142          -6.0070    14.4128   -15.0612 O.2     
 143 O143          -4.3253    13.4240   -17.8144 O.3     
 144 H144          -3.2216     9.0189    -4.7350 H       
 145 H145          -3.5231     8.9387    -6.4874 H       
 146 H146          -2.0248     6.9254    -6.6042 H       
 147 H147          -2.1713     6.1869    -4.3709 H       
 148 H148          -4.0909     6.6709    -4.5270 H       
 149 H149          -5.9777     8.6554    -5.8756 H       
 150 H150          -6.4720     7.2708    -4.8722 H       
 151 H151          -5.5720     8.6222    -4.1428 H       
 152 H152          -3.6060     5.9572    -6.8517 H       
 153 H153          -5.3240     5.7145    -6.4541 H       
 154 H154          -4.8296     7.0991    -7.4575 H       
 155 H155          -1.7142     5.7330    -0.8272 H       
 156 H156          -3.0204     6.5777    -1.6924 H       
 157 H157          -0.9339     7.9670    -1.4224 H       
 158 H158          -0.9852     8.7085    -3.6518 H       
 159 H159          -2.6544     4.3817    -2.5579 H       
 160 H160           3.2232     6.7789    -0.3304 H       
 161 H161           4.3748     6.0256    -1.4594 H       
 162 H162           2.4203     5.2216    -2.8277 H       
 163 H163           0.6005     5.9357    -0.6219 H       
 164 H164           1.9552     8.7286    -0.9675 H       
 165 H165           1.7971    10.6977    -2.4360 H       
 166 H166           4.4536     8.8298    -5.2143 H       
 167 H167           4.6144     6.8687    -3.7354 H       
 168 H168           3.6941    11.6537    -4.5517 H       
 169 H169           3.7093     1.0444    -2.0192 H       
 170 H170           3.4725     0.1690    -0.4876 H       
 171 H171           3.3333     2.3795     0.6983 H       
 172 H172           4.3785     3.8217    -1.6158 H       
 173 H173          -0.7218     1.0300    -1.6782 H       
 174 H174          -2.8521    -1.2191    -3.2930 H       
 175 H175           0.5381    -1.9174    -3.1680 H       
 176 H176          -0.9486    -2.4753    -3.7167 H       
 177 H177           1.2968     1.3151    -0.1689 H       
 178 H178           1.5336     2.1905    -1.7006 H       
 179 H179           1.3733    -0.8418    -1.3899 H       
 180 H180           1.6101     0.0336    -2.9215 H       
 181 H181           6.9645     1.2774     2.9937 H       
 182 H182           8.6348     1.2897     2.3785 H       
 183 H183           7.7173     1.0773     0.0441 H       
 184 H184           5.0693     0.3458     1.0344 H       
 185 H185           7.8797     3.8731     2.9554 H       
 186 H186           4.2129   -19.6769     6.1227 H       
 187 H187           2.4894   -20.0745     6.3220 H       
 188 H188           2.2409   -18.0481     7.7862 H       
 189 H189           5.1325   -17.7376     8.0508 H       
 190 H190           1.8706   -17.8724     5.3646 H       
 191 H191           3.5941   -17.4748     5.1653 H       
 192 H192           2.6134   -18.8414     1.9064 H       
 193 H193           2.4368   -21.6435    12.1384 H       
 194 H194           2.6031   -19.9815    11.5231 H       
 195 H195           3.8713   -21.6642    10.1547 H       
 196 H196           1.8129   -20.6486     8.3493 H       
 197 H197           0.3236   -20.5438    11.9629 H       
 198 H198           2.2929   -26.0635    11.9908 H       
 199 H199           1.7629   -27.2109    10.7375 H       
 200 H200           1.6603   -25.3046     9.1042 H       
 201 H201          -0.4986   -25.9567    10.4055 H       
 202 H202           2.6963   -23.7682    11.3610 H       
 203 H203           4.8394   -25.2670    11.7880 H       
 204 H204           6.9055   -25.8944    10.4177 H       
 205 H205           3.5076   -27.6553     8.6815 H       
 206 H206           2.0276    10.5793    -8.3347 H       
 207 H207           1.6976     9.0847    -7.4261 H       
 208 H208           0.2165    10.9614    -6.7089 H       
 209 H209          -1.6398     9.1032    -7.9702 H       
 210 H210           0.2171     8.3250    -9.3087 H       
 211 H211           0.6967     9.7739   -10.2247 H       
 212 H212           3.0431     9.0743   -10.1812 H       
 213 H213           2.6397     7.6825    -9.1475 H       
 214 H214           1.2570     6.7139   -10.9213 H       
 215 H215           1.5143     8.1470   -11.9452 H       
 216 H216           3.0122     6.3564   -12.5275 H       
 217 H217           3.8867     7.6218   -11.8951 H       
 218 H218           1.9555    12.5357    -8.3127 H       
 219 H219           0.8874    13.1202    -7.0065 H       
 220 H220           0.7919    15.2820    -7.8868 H       
 221 H221           2.3220    14.8050    -8.6933 H       
 222 H222          -1.4574    14.1539    -9.1714 H       
 223 H223           0.1867    15.5782   -10.1987 H       
 224 H224           1.1875    14.1843   -10.7277 H       
 225 H225          10.0024     0.2906     1.5835 H       
 226 H226           9.7875     0.0700    -0.1755 H       
 227 H227          11.2907    -1.7165    -0.2577 H       
 228 H228          11.9171    -0.9976     1.2622 H       
 229 H229           8.8914    -3.1434     0.1774 H       
 230 H230          10.9981    -3.5626     1.2606 H       
 231 H231          10.6027    -2.4789     2.6367 H       
 232 H232           5.4593    -5.6443     1.7960 H       
 233 H233           5.0316    -5.6709     3.5236 H       
 234 H234           7.2994    -4.8485     4.0977 H       
 235 H235           8.3078    -5.1674     1.3757 H       
 236 H236           3.8914    -3.4530     2.3585 H       
 237 H237           8.2053    -8.7458     6.0353 H       
 238 H238           8.6359   -10.2475     5.1823 H       
 239 H239           7.4690    -9.3649     3.1399 H       
 240 H240           6.1728    -7.2321     4.6561 H       
 241 H241          11.9350    -7.5411     3.9404 H       
 242 H242          14.1825    -8.6644     7.0524 H       
 243 H243          14.2372    -6.9420     4.0479 H       
 244 H244          15.1694    -7.4207     5.3612 H       
 245 H245           9.8621    -8.9279     3.4782 H       
 246 H246           9.4314    -7.4262     4.3313 H       
 247 H247          11.0601    -9.7303     5.4955 H       
 248 H248          10.6295    -8.2286     6.3486 H       
 249 H249           4.6140   -12.7611     3.4200 H       
 250 H250           3.2680   -12.8856     4.5781 H       
 251 H251           4.4898   -11.2982     6.0946 H       
 252 H252           6.9749   -11.5835     4.5877 H       
 253 H253           5.0201   -10.6993     2.2040 H       
 254 H254           4.0446    -8.6303     1.2926 H       
 255 H255           1.9440    -7.7453     2.2239 H       
 256 H256           0.8186    -8.9296     4.0662 H       
 257 H257           1.7897   -11.0032     4.9719 H       
 258 H258           4.7113   -14.5288     9.1406 H       
 259 H259           5.8270   -15.9149     9.0962 H       
 260 H260           5.9991   -15.6346     6.6054 H       
 261 H261           3.6987   -13.8375     6.5289 H       
 262 H262           5.5029   -12.2812     8.6755 H       
 263 H263           7.4213   -10.7377     8.6966 H       
 264 H264           9.7172   -11.6267     8.6546 H       
 265 H265          10.0947   -14.0591     8.5922 H       
 266 H266           8.1763   -15.6028     8.5795 H       
 267 H267          -4.0711    11.6127   -13.5522 H       
 268 H268          -1.7521    12.5539   -13.4355 H       
 269 H269          -2.4872    14.4616   -11.3504 H       
 270 H270          -3.8015    10.0620   -11.6898 H       
 271 H271          -2.1889    10.4612   -12.3288 H       
 272 H272          -2.7632    11.2205   -10.8249 H       
 273 H273          -4.3847    13.0480   -10.8767 H       
 274 H274          -5.2201    13.4768   -12.3888 H       
 275 H275          -5.5609    11.9210   -11.5942 H       
 276 H276          -3.8266    15.4121   -18.0742 H       
 277 H277          -2.5066    14.3572   -17.5148 H       
 278 H278          -3.3927    15.8599   -15.7069 H       
 279 H279          -5.9013    15.8667   -16.4043 H       
 280 H280          -3.3561    12.9527   -15.4342 H       
 281 H281          -4.1672    13.1391   -18.7249 H       
@<TRIPOS>BOND
   1    1    6 1
   2    1    2 1
   3    1  144 1
   4    1  145 1
   5    2    4 1
   6    2    3 1
   7    2  146 1
   8    3    5 2
   9    3   72 am
  10    4   12 1
  11    4  147 1
  12    6    7 1
  13    6    8 1
  14    6  148 1
  15    7  149 1
  16    7  150 1
  17    7  151 1
  18    8  152 1
  19    8  153 1
  20    8  154 1
  21    9   14 1
  22    9   10 1
  23    9  155 1
  24    9  156 1
  25   10   12 1
  26   10   11 1
  27   10  157 1
  28   11   13 2
  29   11   18 am
  30   12  158 1
  31   14  159 1
  32   15   20 1
  33   15   16 1
  34   15  160 1
  35   15  161 1
  36   16   17 1
  37   16   18 1
  38   16  162 1
  39   17   19 2
  40   17   30 am
  41   18  163 1
  42   20   21 ar
  43   20   25 ar
  44   21   22 ar
  45   21  164 1
  46   22   23 ar
  47   22  165 1
  48   23   24 ar
  49   23   26 1
  50   24   25 ar
  51   24  166 1
  52   25  167 1
  53   26  168 1
  54   27   36 1
  55   27   28 1
  56   27  169 1
  57   27  170 1
  58   28   30 1
  59   28   29 1
  60   28  171 1
  61   29   31 2
  62   29   41 am
  63   30  172 1
  64   32   37 1
  65   32   33 1
  66   32  173 1
  67   33   34 2
  68   33   35 1
  69   34  174 1
  70   35  175 1
  71   35  176 1
  72   36   37 1
  73   36  177 1
  74   36  178 1
  75   37  179 1
  76   37  180 1
  77   38   43 1
  78   38   39 1
  79   38  181 1
  80   38  182 1
  81   39   40 1
  82   39   41 1
  83   39  183 1
  84   40   42 2
  85   40   89 am
  86   41  184 1
  87   43  185 1
  88   44   49 1
  89   44   45 1
  90   44  186 1
  91   44  187 1
  92   45   47 1
  93   45   46 1
  94   45  188 1
  95   46   48 2
  96   46   56 am
  97   47  122 am
  98   47  189 1
  99   49   50 1
 100   49  190 1
 101   49  191 1
 102   50   51 2
 103   50   52 1
 104   52  192 1
 105   53   58 1
 106   53   54 1
 107   53  193 1
 108   53  194 1
 109   54   56 1
 110   54   55 1
 111   54  195 1
 112   55   57 2
 113   55   62 am
 114   56  196 1
 115   58  197 1
 116   59   64 1
 117   59   60 1
 118   59  198 1
 119   59  199 1
 120   60   61 1
 121   60   62 1
 122   60  200 1
 123   61   63 2
 124   61  201 1
 125   62  202 1
 126   64   65 1
 127   64   68 2
 128   65   66 1
 129   65  203 1
 130   66   67 2
 131   66  204 1
 132   67   68 1
 133   68  205 1
 134   69   74 1
 135   69   70 1
 136   69  206 1
 137   69  207 1
 138   70   72 1
 139   70   71 1
 140   70  208 1
 141   71   73 2
 142   71   82 am
 143   72  209 1
 144   74   75 1
 145   74  210 1
 146   74  211 1
 147   75   76 1
 148   75  212 1
 149   75  213 1
 150   76   77 1
 151   76  214 1
 152   76  215 1
 153   77  216 1
 154   77  217 1
 155   78   82 1
 156   78   79 1
 157   78  218 1
 158   78  219 1
 159   79   84 1
 160   79  220 1
 161   79  221 1
 162   80   82 1
 163   80   81 1
 164   80   84 1
 165   80  222 1
 166   81   83 2
 167   81  134 am
 168   84  223 1
 169   84  224 1
 170   85   89 1
 171   85   86 1
 172   85  225 1
 173   85  226 1
 174   86   91 1
 175   86  227 1
 176   86  228 1
 177   87   89 1
 178   87   88 1
 179   87   91 1
 180   87  229 1
 181   88   90 2
 182   88   95 am
 183   91  230 1
 184   91  231 1
 185   92   97 1
 186   92   93 1
 187   92  232 1
 188   92  233 1
 189   93   94 1
 190   93   95 1
 191   93  234 1
 192   94   96 2
 193   94  101 am
 194   95  235 1
 195   97  236 1
 196   98  107 1
 197   98   99 1
 198   98  237 1
 199   98  238 1
 200   99  101 1
 201   99  100 1
 202   99  239 1
 203  100  102 2
 204  100  112 am
 205  101  240 1
 206  103  108 1
 207  103  104 1
 208  103  241 1
 209  104  105 2
 210  104  106 1
 211  105  242 1
 212  106  243 1
 213  106  244 1
 214  107  108 1
 215  107  245 1
 216  107  246 1
 217  108  247 1
 218  108  248 1
 219  109  114 1
 220  109  110 1
 221  109  249 1
 222  109  250 1
 223  110  111 1
 224  110  112 1
 225  110  251 1
 226  111  113 2
 227  111  123 am
 228  112  252 1
 229  114  115 ar
 230  114  119 ar
 231  115  116 ar
 232  115  253 1
 233  116  117 ar
 234  116  254 1
 235  117  118 ar
 236  117  255 1
 237  118  119 ar
 238  118  256 1
 239  119  257 1
 240  120  125 1
 241  120  121 1
 242  120  258 1
 243  120  259 1
 244  121  122 1
 245  121  123 1
 246  121  260 1
 247  122  124 2
 248  123  261 1
 249  125  126 ar
 250  125  130 ar
 251  126  127 ar
 252  126  262 1
 253  127  128 ar
 254  127  263 1
 255  128  129 ar
 256  128  264 1
 257  129  130 ar
 258  129  265 1
 259  130  266 1
 260  131  136 1
 261  131  137 1
 262  131  132 1
 263  131  267 1
 264  132  134 1
 265  132  133 1
 266  132  268 1
 267  133  135 2
 268  133  141 am
 269  134  269 1
 270  136  270 1
 271  136  271 1
 272  136  272 1
 273  137  273 1
 274  137  274 1
 275  137  275 1
 276  138  143 1
 277  138  139 1
 278  138  276 1
 279  138  277 1
 280  139  141 1
 281  139  140 1
 282  139  278 1
 283  140  142 2
 284  140  279 1
 285  141  280 1
 286  143  281 1

#	End of record

