#	Name: ASD01884914
#	Creating user name:	WinNT
#	Creation time:	15. 06. 2019 19:49

#	Modifying user name:	WinNT
#	Modification time:	15. 06. 2019 19:49

#	Program:	/corina/corina34_cracker 3.40 0067  02.08.2006

@<TRIPOS>MOLECULE
ASD01884914
  44   48    0    0    0
SMALL
NO_CHARGES


@<TRIPOS>ATOM
   1 C1             1.0440     1.4882     0.6825 C.ar    
   2 C2             0.9173     0.1156     0.7688 C.ar    
   3 C3             1.5056    -0.7012    -0.1968 C.ar    
   4 C4             2.2141    -0.1296    -1.2527 C.ar    
   5 C5             2.3272     1.2487    -1.3328 C.ar    
   6 C6             1.7540     2.0490    -0.3616 C.ar    
   7 C7             1.3780    -2.1746    -0.1002 C.2     
   8 C8             0.6412    -2.8740    -1.0369 C.2     
   9 C9             2.0148    -2.8800     0.9497 C.2     
  10 C10            1.8985    -4.2185     1.0352 C.2     
  11 N11            1.1683    -4.9170     0.1173 N.pl3   
  12 C12            0.5389    -4.2707    -0.9191 C.2     
  13 C13            0.8840    -6.2388    -0.0419 C.2     
  14 N14            0.1298    -6.3546    -1.1045 N.2     
  15 N15           -0.0802    -5.1996    -1.6313 N.2     
  16 O16            2.9804     1.8207    -2.3821 O.3     
  17 C17            2.1504     2.5378    -3.3036 C.3     
  18 C18            1.9342     3.9613    -2.8370 C.3     
  19 N19            1.1791     4.0599    -1.5907 N.3     
  20 C20            1.9298     3.5532    -0.4364 C.3     
  21 H21            0.8661     5.0058    -1.4314 H       
  22 C22            1.3527    -7.3638     0.8445 C.3     
  23 C23            0.2827    -8.2107     1.5364 C.3     
  24 C24            1.0852    -8.7941     0.3717 C.3     
  25 C25           -0.0429    -2.1497    -2.1676 C.3     
  26 F26            0.8786    -1.9088    -3.1923 F       
  27 F27           -1.0911    -2.9357    -2.6584 F       
  28 F28           -0.5513    -0.9324    -1.7019 F       
  29 H29            0.5853     2.1219     1.4270 H       
  30 H30            0.3631    -0.3253     1.5842 H       
  31 H31            2.6720    -0.7572    -2.0029 H       
  32 H32            2.5962    -2.3424     1.6841 H       
  33 H33            2.3891    -4.7461     1.8397 H       
  34 H34            2.6292     2.5502    -4.2827 H       
  35 H35            1.1860     2.0361    -3.3830 H       
  36 H36            2.9064     4.4328    -2.6939 H       
  37 H37            1.3971     4.5051    -3.6141 H       
  38 H38            1.5494     4.0114     0.4765 H       
  39 H39            2.9867     3.7922    -0.5545 H       
  40 H40            2.2781    -7.1783     1.3898 H       
  41 H41            0.5043    -8.5828     2.5367 H       
  42 H42           -0.7603    -7.9542     1.3504 H       
  43 H43            0.5703    -8.9214    -0.5805 H       
  44 H44            1.8349    -9.5500     0.6058 H       
@<TRIPOS>BOND
   1    1    2 ar
   2    1    6 ar
   3    1   29 1
   4    2    3 ar
   5    2   30 1
   6    3    4 ar
   7    3    7 1
   8    4    5 ar
   9    4   31 1
  10    5    6 ar
  11    5   16 1
  12    6   20 1
  13    7    8 2
  14    7    9 1
  15    8   25 1
  16    8   12 1
  17    9   10 2
  18    9   32 1
  19   10   11 1
  20   10   33 1
  21   11   12 1
  22   11   13 1
  23   12   15 2
  24   13   14 2
  25   13   22 1
  26   14   15 1
  27   16   17 1
  28   17   18 1
  29   17   34 1
  30   17   35 1
  31   18   19 1
  32   18   36 1
  33   18   37 1
  34   19   20 1
  35   19   21 1
  36   20   38 1
  37   20   39 1
  38   22   23 1
  39   22   24 1
  40   22   40 1
  41   23   24 1
  42   23   41 1
  43   23   42 1
  44   24   43 1
  45   24   44 1
  46   25   26 1
  47   25   27 1
  48   25   28 1

#	End of record

