#	Name: ASD02198573
#	Creating user name:	WinNT
#	Creation time:	15. 06. 2019 20:19

#	Modifying user name:	WinNT
#	Modification time:	15. 06. 2019 20:19

#	Program:	/corina/corina34_cracker 3.40 0067  02.08.2006

@<TRIPOS>MOLECULE
ASD02198573
  54   58    0    0    0
SMALL
NO_CHARGES


@<TRIPOS>ATOM
   1 C1            -0.3209     1.4639    -0.5904 C.2     
   2 C2            -0.3236     0.1305    -0.8630 C.2     
   3 N3            -1.3289    -0.6627    -0.4263 N.pl3   
   4 N4            -2.3231    -0.2278     0.2558 N.2     
   5 C5            -2.4441     1.0407     0.5888 C.2     
   6 C6            -1.4010     1.9860     0.1679 C.2     
   7 C7            -1.2811    -2.0264    -0.7352 C.ar    
   8 C8            -2.3029    -3.9775    -1.6924 C.ar    
   9 C9            -1.1861    -4.7271    -1.3469 C.ar    
  10 C10           -0.1198    -4.1244    -0.6905 C.ar    
  11 C11           -0.1673    -2.7796    -0.3855 C.ar    
  12 C12           -3.6052     1.5039     1.3757 C.2     
  13 N13           -3.5640     2.1848     2.5598 N.pl3   
  14 N14           -4.8844     2.4269     2.9589 N.2     
  15 C15           -5.6944     1.9197     2.0641 C.2     
  16 C16           -4.9334     1.3361     1.0511 C.2     
  17 C17           -2.4084     2.5707     3.2509 C.ar    
  18 C18           -1.3181     1.7132     3.3166 C.ar    
  19 O19           -1.4656     3.1737     0.4509 O.2     
  20 C20           -2.3485     3.8138     3.8669 C.ar    
  21 C21           -1.2076     4.1913     4.5476 C.ar    
  22 C22           -0.1257     3.3328     4.6161 C.ar    
  23 C23           -0.1800     2.0966     3.9988 C.ar    
  24 C24           -2.3517    -2.6303    -1.3879 C.ar    
  25 F25           -3.4379    -1.9003    -1.7231 F       
  26 O26            0.6860     2.2682    -1.0253 O.3     
  27 C27            1.7324     1.6491    -1.7763 C.3     
  28 N28           -1.1366    -6.0910    -1.6552 N.am    
  29 C29           -0.6529    -6.4644    -2.8463 C.2     
  30 C30           -1.6094    -7.0529    -0.6624 C.3     
  31 C31           -1.8977    -8.3970    -1.3346 C.3     
  32 O32           -0.7715    -8.7559    -2.1438 O.3     
  33 C33           -0.6006    -7.9037    -3.2776 C.3     
  34 O34           -0.2426    -5.6113    -3.6045 O.2     
  35 H35            0.4857    -0.2992    -1.4346 H       
  36 H36           -3.1313    -4.4462    -2.2028 H       
  37 H37            0.7483    -4.7082    -0.4223 H       
  38 H38            0.6618    -2.3123     0.1250 H       
  39 H39           -6.7732     1.9514     2.1020 H       
  40 H40           -5.3167     0.8364     0.1736 H       
  41 H41           -1.3601     0.7474     2.8350 H       
  42 H42           -3.1931     4.4848     3.8135 H       
  43 H43           -1.1603     5.1581     5.0266 H       
  44 H44            0.7655     3.6305     5.1486 H       
  45 H45            0.6665     1.4282     4.0543 H       
  46 H46            2.2119     0.8826    -1.1676 H       
  47 H47            1.3145     1.1921    -2.6733 H       
  48 H48            2.4689     2.4006    -2.0608 H       
  49 H49           -0.8456    -7.1876     0.1034 H       
  50 H50           -2.5217    -6.6766    -0.1996 H       
  51 H51           -2.0586    -9.1598    -0.5729 H       
  52 H52           -2.7852    -8.3096    -1.9613 H       
  53 H53           -1.3977    -8.0931    -3.9965 H       
  54 H54            0.3629    -8.1098    -3.7437 H       
@<TRIPOS>BOND
   1    1    2 2
   2    1   26 1
   3    1    6 1
   4    2    3 1
   5    2   35 1
   6    3    4 1
   7    3    7 1
   8    4    5 2
   9    5    6 1
  10    5   12 1
  11    6   19 2
  12    7   24 ar
  13    7   11 ar
  14    8    9 ar
  15    8   24 ar
  16    8   36 1
  17    9   10 ar
  18    9   28 1
  19   10   11 ar
  20   10   37 1
  21   11   38 1
  22   12   13 1
  23   12   16 2
  24   13   14 1
  25   13   17 1
  26   14   15 2
  27   15   16 1
  28   15   39 1
  29   16   40 1
  30   17   20 ar
  31   17   18 ar
  32   18   23 ar
  33   18   41 1
  34   20   21 ar
  35   20   42 1
  36   21   22 ar
  37   21   43 1
  38   22   23 ar
  39   22   44 1
  40   23   45 1
  41   24   25 1
  42   26   27 1
  43   27   46 1
  44   27   47 1
  45   27   48 1
  46   28   29 am
  47   28   30 1
  48   29   34 2
  49   29   33 1
  50   30   31 1
  51   30   49 1
  52   30   50 1
  53   31   32 1
  54   31   51 1
  55   31   52 1
  56   32   33 1
  57   33   53 1
  58   33   54 1

#	End of record

