#	Name: ASD03240427
#	Creating user name:	WinNT
#	Creation time:	15. 06. 2019 20:34

#	Modifying user name:	WinNT
#	Modification time:	15. 06. 2019 20:34

#	Program:	/corina/corina34_cracker 3.40 0067  02.08.2006

@<TRIPOS>MOLECULE
ASD03240427
  36   37    0    0    0
SMALL
NO_CHARGES


@<TRIPOS>ATOM
   1 C1             0.3650     1.2186     0.2797 C.ar    
   2 C2             0.1627     0.5627     1.4796 C.ar    
   3 C3             3.0293     1.0997     1.7535 C.ar    
   4 C4             2.3055     2.2261     1.4090 C.ar    
   5 C5             1.4734     2.2317     0.1526 C.3     
   6 C6             3.7922     1.0939     2.9059 C.ar    
   7 C7             3.8316     2.2155     3.7149 C.ar    
   8 C8             3.1071     3.3425     3.3697 C.ar    
   9 C9             2.3445     3.3472     2.2170 C.ar    
  10 Cl10           4.7892     2.2087     5.1629 Cl      
  11 C11           -0.8534    -0.3669     1.5966 C.ar    
  12 C12           -1.6681    -0.6409     0.5125 C.ar    
  13 C13           -1.4651     0.0158    -0.6882 C.ar    
  14 C14           -0.4453     0.9413    -0.8055 C.ar    
  15 Cl15          -2.9442    -1.8088     0.6586 Cl      
  16 C16            2.3559     1.8746    -1.0451 C.3     
  17 C17            0.8715     3.6230    -0.0543 C.3     
  18 N18           -0.0844     3.9082     1.0241 N.3     
  19 C19           -0.5885     5.2848     0.9303 C.3     
  20 H20            0.7989     0.7765     2.3258 H       
  21 H21            2.9949     0.2227     1.1242 H       
  22 H22            4.3573     0.2137     3.1751 H       
  23 H23            3.1374     4.2184     4.0007 H       
  24 H24            1.7791     4.2270     1.9472 H       
  25 H25           -1.0112    -0.8795     2.5341 H       
  26 H26           -2.1005    -0.1980    -1.5349 H       
  27 H27           -0.2869     1.4543    -1.7426 H       
  28 H28            2.7848     0.8834    -0.8978 H       
  29 H29            1.7541     1.8786    -1.9539 H       
  30 H30            3.1576     2.6073    -1.1370 H       
  31 H31            1.6666     4.3684    -0.0416 H       
  32 H32            0.3568     3.6571    -1.0145 H       
  33 H33           -0.8439     3.2439     1.0192 H       
  34 H34            0.2450     5.9830     1.0084 H       
  35 H35           -1.0903     5.4236    -0.0273 H       
  36 H36           -1.2941     5.4694     1.7404 H       
@<TRIPOS>BOND
   1    1    2 ar
   2    1    5 1
   3    1   14 ar
   4    2   11 ar
   5    2   20 1
   6    3    4 ar
   7    3    6 ar
   8    3   21 1
   9    4    5 1
  10    4    9 ar
  11    5   17 1
  12    5   16 1
  13    6    7 ar
  14    6   22 1
  15    7    8 ar
  16    7   10 1
  17    8    9 ar
  18    8   23 1
  19    9   24 1
  20   11   12 ar
  21   11   25 1
  22   12   13 ar
  23   12   15 1
  24   13   14 ar
  25   13   26 1
  26   14   27 1
  27   16   28 1
  28   16   29 1
  29   16   30 1
  30   17   18 1
  31   17   31 1
  32   17   32 1
  33   18   19 1
  34   18   33 1
  35   19   34 1
  36   19   35 1
  37   19   36 1

#	End of record

