#	Name: ASD01880139
#	Creating user name:	WinNT
#	Creation time:	15. 06. 2019 19:40

#	Modifying user name:	WinNT
#	Modification time:	15. 06. 2019 19:40

#	Program:	/corina/corina34_cracker 3.40 0067  02.08.2006

@<TRIPOS>MOLECULE
ASD01880139
  60   64    0    0    0
SMALL
NO_CHARGES


@<TRIPOS>ATOM
   1 C1            -0.0168     1.3866     0.0097 C.ar    
   2 C2             0.0021    -0.0041     0.0020 C.ar    
   3 C3            -1.1908    -0.7171     0.0091 C.ar    
   4 C4            -2.3920    -0.0608     0.0240 C.ar    
   5 C5            -2.4274     1.3358     0.0323 C.ar    
   6 C6            -1.2195     2.0577     0.0305 C.ar    
   7 C7            -3.8022    -0.6015     0.0346 C.3     
   8 C8            -4.7307     0.6205     0.0505 C.3     
   9 C9            -3.8138     1.8193     0.0485 C.2     
  10 Cl10          -1.2453     3.7935     0.0407 Cl      
  11 Cl11           1.4742     2.2757     0.0002 Cl      
  12 C12           -5.6170     0.6290    -1.1966 C.3     
  13 C13           -5.5927     0.6147     1.3145 C.3     
  14 C14           -6.5592     1.8584    -1.1921 C.3     
  15 C15           -6.9052     2.0754    -2.6797 C.3     
  16 C16           -5.7661     1.4369    -3.4936 C.3     
  17 C17           -4.7676     0.8541    -2.4721 C.3     
  18 O18           -4.1620     2.9813     0.0585 O.2     
  19 C19            3.9511    -6.0666    -0.0681 C.ar    
  20 C20            5.2134    -6.6442    -0.0832 C.ar    
  21 C21            5.3450    -8.0170    -0.0865 C.ar    
  22 C22            4.2095    -8.8245    -0.0743 C.ar    
  23 C23            2.9437    -8.2421    -0.0587 C.ar    
  24 C24            2.8180    -6.8687    -0.0558 C.ar    
  25 C25            4.3480   -10.3023    -0.0783 C.2     
  26 N26            5.4931   -10.9992    -0.0927 N.2     
  27 N27            5.1798   -12.2505    -0.0912 N.2     
  28 N28            3.8973   -12.3603    -0.0766 N.pl3   
  29 N29            3.3689   -11.1849    -0.0628 N.2     
  30 C30            2.4963    -4.1867    -0.0442 C.3     
  31 O31            3.8244    -4.7138    -0.0596 O.3     
  32 C32            2.5544    -2.6578    -0.0365 C.3     
  33 C33            1.1324    -2.0935    -0.0200 C.3     
  34 O34            1.1867    -0.6655    -0.0128 O.3     
  35 H35           -1.1699    -1.7969     0.0024 H       
  36 H36           -3.9818    -1.1967    -0.8607 H       
  37 H37           -3.9646    -1.2069     0.9263 H       
  38 H38           -6.1892    -0.2959    -1.2684 H       
  39 H39           -4.9486     0.6326     2.1937 H       
  40 H40           -6.2375     1.4935     1.3186 H       
  41 H41           -6.2062    -0.2861     1.3318 H       
  42 H42           -7.4610     1.6458    -0.6178 H       
  43 H43           -6.0457     2.7311    -0.7886 H       
  44 H44           -7.8517     1.5899    -2.9176 H       
  45 H45           -6.9670     3.1417    -2.8969 H       
  46 H46           -6.1597     0.6415    -4.1265 H       
  47 H47           -5.2751     2.1933    -4.1058 H       
  48 H48           -3.9648     1.5646    -2.2754 H       
  49 H49           -4.3619    -0.0914    -2.8320 H       
  50 H50            6.0932    -6.0178    -0.0927 H       
  51 H51            6.3273    -8.4658    -0.0990 H       
  52 H52            2.0619    -8.8656    -0.0495 H       
  53 H53            1.8372    -6.4167    -0.0434 H       
  54 H54            3.4058   -13.1965    -0.0723 H       
  55 H55            1.9606    -4.5255    -0.9309 H       
  56 H56            1.9775    -4.5351     0.8489 H       
  57 H57            3.0901    -2.3191     0.8503 H       
  58 H58            3.0732    -2.3095    -0.9296 H       
  59 H59            0.5967    -2.4322    -0.9067 H       
  60 H60            0.6136    -2.4418     0.8731 H       
@<TRIPOS>BOND
   1    1    2 ar
   2    1   11 1
   3    1    6 ar
   4    2    3 ar
   5    2   34 1
   6    3    4 ar
   7    3   35 1
   8    4    5 ar
   9    4    7 1
  10    5    6 ar
  11    5    9 1
  12    6   10 1
  13    7    8 1
  14    7   36 1
  15    7   37 1
  16    8    9 1
  17    8   12 1
  18    8   13 1
  19    9   18 2
  20   12   14 1
  21   12   17 1
  22   12   38 1
  23   13   39 1
  24   13   40 1
  25   13   41 1
  26   14   15 1
  27   14   42 1
  28   14   43 1
  29   15   16 1
  30   15   44 1
  31   15   45 1
  32   16   17 1
  33   16   46 1
  34   16   47 1
  35   17   48 1
  36   17   49 1
  37   19   20 ar
  38   19   24 ar
  39   19   31 1
  40   20   21 ar
  41   20   50 1
  42   21   22 ar
  43   21   51 1
  44   22   23 ar
  45   22   25 1
  46   23   24 ar
  47   23   52 1
  48   24   53 1
  49   25   26 1
  50   25   29 2
  51   26   27 2
  52   27   28 1
  53   28   29 1
  54   28   54 1
  55   30   31 1
  56   30   32 1
  57   30   55 1
  58   30   56 1
  59   32   33 1
  60   32   57 1
  61   32   58 1
  62   33   34 1
  63   33   59 1
  64   33   60 1

#	End of record

