#	Name: ASD04880476
#	Creating user name:	WinNT
#	Creation time:	15. 06. 2019 20:53

#	Modifying user name:	WinNT
#	Modification time:	15. 06. 2019 20:53

#	Program:	/corina/corina34_cracker 3.40 0067  02.08.2006

@<TRIPOS>MOLECULE
ASD04880476
  37   39    0    0    0
SMALL
NO_CHARGES


@<TRIPOS>ATOM
   1 C1            -0.0598     1.2808    -0.0259 C.2     
   2 O2             0.1458     0.0823    -0.0351 O.2     
   3 C3             1.0742     2.2257    -0.1005 C.ar    
   4 C4             2.3856     1.7547    -0.0169 C.ar    
   5 C5             3.4408     2.6437    -0.0878 C.ar    
   6 C6             3.1981     3.9996    -0.2417 C.ar    
   7 C7             1.9004     4.4706    -0.3246 C.ar    
   8 C8             0.8383     3.5921    -0.2608 C.ar    
   9 F9             4.7110     2.1908    -0.0067 F       
  10 N10           -1.3221     1.7474     0.0467 N.am    
  11 N11           -1.6847     3.0852     0.1890 N.2     
  12 C12           -2.9573     3.2837     0.2340 C.2     
  13 C13           -3.6793     1.9606     0.1145 C.3     
  14 C14           -2.5426     0.9278    -0.0177 C.3     
  15 C15           -3.6084     4.5978     0.3804 C.ar    
  16 C16           -2.8362     5.7425     0.6040 C.ar    
  17 C17           -3.4506     6.9697     0.7398 C.ar    
  18 C18           -4.8333     7.0694     0.6546 C.ar    
  19 C19           -5.6036     5.9351     0.4326 C.ar    
  20 C20           -4.9986     4.7050     0.2904 C.ar    
  21 O21           -5.4343     8.2802     0.7893 O.3     
  22 C22           -6.8595     8.3115     0.6911 C.3     
  23 Cl23          -1.1080     5.6185     0.7111 Cl      
  24 H24            2.5748     0.6982     0.1033 H       
  25 H25            4.0258     4.6912    -0.2967 H       
  26 H26            1.7180     5.5284    -0.4440 H       
  27 H27           -0.1741     3.9616    -0.3305 H       
  28 H28           -4.2738     1.7674     1.0075 H       
  29 H29           -4.3088     1.9476    -0.7753 H       
  30 H30           -2.6047     0.4067    -0.9731 H       
  31 H31           -2.5726     0.2188     0.8096 H       
  32 H32           -2.8558     7.8544     0.9128 H       
  33 H33           -6.6784     6.0179     0.3672 H       
  34 H34           -5.5986     3.8246     0.1133 H       
  35 H35           -7.1645     7.9404    -0.2874 H       
  36 H36           -7.2913     7.6820     1.4691 H       
  37 H37           -7.2100     9.3360     0.8165 H       
@<TRIPOS>BOND
   1    1    2 2
   2    1    3 1
   3    1   10 am
   4    3    4 ar
   5    3    8 ar
   6    4    5 ar
   7    4   24 1
   8    5    6 ar
   9    5    9 1
  10    6    7 ar
  11    6   25 1
  12    7    8 ar
  13    7   26 1
  14    8   27 1
  15   10   11 1
  16   10   14 1
  17   11   12 2
  18   12   13 1
  19   12   15 1
  20   13   14 1
  21   13   28 1
  22   13   29 1
  23   14   30 1
  24   14   31 1
  25   15   16 ar
  26   15   20 ar
  27   16   17 ar
  28   16   23 1
  29   17   18 ar
  30   17   32 1
  31   18   19 ar
  32   18   21 1
  33   19   20 ar
  34   19   33 1
  35   20   34 1
  36   21   22 1
  37   22   35 1
  38   22   36 1
  39   22   37 1

#	End of record

