#	Name: ASD05740087
#	Creating user name:	WinNT
#	Creation time:	15. 06. 2019 21:02

#	Modifying user name:	WinNT
#	Modification time:	15. 06. 2019 21:02

#	Program:	/corina/corina34_cracker 3.40 0067  02.08.2006

@<TRIPOS>MOLECULE
ASD05740087
  49   52    0    0    0
SMALL
NO_CHARGES


@<TRIPOS>ATOM
   1 C1            -0.2150     1.4706     0.2732 C.3     
   2 C2             1.2446    -0.5620    -0.0841 C.2     
   3 C3             1.3968    -1.9267    -0.2787 C.2     
   4 C4            -0.0420    -0.0113     0.0609 C.2     
   5 C5            -1.1323    -0.8314     0.0081 C.2     
   6 C6            -0.9456    -2.2060    -0.1898 C.2     
   7 O7             0.2851    -2.7170    -0.3259 O.3     
   8 C8            -2.5203    -0.2649     0.1613 C.3     
   9 C9            -3.1071     0.0021    -1.2008 C.ar    
  10 C10           -3.0108     1.2639    -1.7596 C.ar    
  11 O11           -1.9145    -2.9455    -0.2382 O.2     
  12 C12           -4.2772    -0.7670    -3.1508 C.ar    
  13 C13           -4.1834     0.5022    -3.7044 C.ar    
  14 C14           -3.5477     1.5130    -3.0088 C.ar    
  15 N15           -4.9199    -1.7919    -3.8523 N.am    
  16 S16           -6.2396    -1.4506    -4.7925 S.o2    
  17 O17           -6.6593    -2.6847    -5.3582 O.2     
  18 O18           -7.0899    -0.6268    -4.0067 O.2     
  19 C19            2.7259    -2.3119    -0.4035 C.2     
  20 C20            3.6289    -1.3270    -0.3180 C.2     
  21 S21            2.8256     0.2122    -0.0569 S.3     
  22 O22            4.9705    -1.4949    -0.4131 O.3     
  23 C23            5.7580    -0.3978    -0.3062 C.ar    
  24 N24            7.0712    -0.5346    -0.3955 N.ar    
  25 N25            5.1950     0.7853    -0.1203 N.ar    
  26 C26            5.9343     1.8769    -0.0122 C.ar    
  27 C27            7.3136     1.7698    -0.0957 C.ar    
  28 C28            7.8692     0.5159    -0.2959 C.ar    
  29 C29           -3.7362    -1.0155    -1.8934 C.ar    
  30 F30           -3.8250    -2.2494    -1.3504 F       
  31 N31           -5.7145    -0.5132    -6.0526 N.am    
  32 C32           -4.7841    -1.0670    -7.0395 C.3     
  33 H33            0.7626     1.9524     0.2863 H       
  34 H34           -0.8141     1.8862    -0.5370 H       
  35 H35           -0.7188     1.6451     1.2240 H       
  36 H36           -3.1478    -0.9798     0.6935 H       
  37 H37           -2.4724     0.6667     0.7252 H       
  38 H38           -2.5154     2.0563    -1.2184 H       
  39 H39           -4.6065     0.6996    -4.6783 H       
  40 H40           -3.4705     2.4995    -3.4417 H       
  41 H41           -4.5926    -2.7028    -3.7881 H       
  42 H42            3.0127    -3.3414    -0.5593 H       
  43 H43            5.4688     2.8397     0.1391 H       
  44 H44            7.9414     2.6446    -0.0112 H       
  45 H45            8.9404     0.3972    -0.3653 H       
  46 H46           -6.0230     0.4025    -6.1373 H       
  47 H47           -5.2405    -1.9294    -7.5252 H       
  48 H48           -4.5539    -0.3083    -7.7875 H       
  49 H49           -3.8656    -1.3752    -6.5400 H       
@<TRIPOS>BOND
   1    1    4 1
   2    1   33 1
   3    1   34 1
   4    1   35 1
   5    2    3 2
   6    2    4 1
   7    2   21 1
   8    3   19 1
   9    3    7 1
  10    4    5 2
  11    5    6 1
  12    5    8 1
  13    6    7 1
  14    6   11 2
  15    8    9 1
  16    8   36 1
  17    8   37 1
  18    9   10 ar
  19    9   29 ar
  20   10   14 ar
  21   10   38 1
  22   12   13 ar
  23   12   15 1
  24   12   29 ar
  25   13   14 ar
  26   13   39 1
  27   14   40 1
  28   15   16 am
  29   15   41 1
  30   16   17 2
  31   16   18 2
  32   16   31 am
  33   19   20 2
  34   19   42 1
  35   20   21 1
  36   20   22 1
  37   22   23 1
  38   23   24 ar
  39   23   25 ar
  40   24   28 ar
  41   25   26 ar
  42   26   27 ar
  43   26   43 1
  44   27   28 ar
  45   27   44 1
  46   28   45 1
  47   29   30 1
  48   31   32 1
  49   31   46 1
  50   32   47 1
  51   32   48 1
  52   32   49 1

#	End of record

