#	Name: ASD01810937
#	Creating user name:	WinNT
#	Creation time:	15. 06. 2019 19:25

#	Modifying user name:	WinNT
#	Modification time:	15. 06. 2019 19:25

#	Program:	/corina/corina34_cracker 3.40 0067  02.08.2006

@<TRIPOS>MOLECULE
ASD01810937
  72   76    0    0    0
SMALL
NO_CHARGES


@<TRIPOS>ATOM
   1 C1            -7.8778     2.0224     2.3663 C.1     
   2 C2            -6.7195     2.8377     2.1556 C.ar    
   3 C3            -5.4708     2.4144     2.6154 C.ar    
   4 C4            -4.3592     3.2047     2.4091 C.ar    
   5 C5            -4.4796     4.4146     1.7487 C.ar    
   6 C6            -5.7139     4.8404     1.2909 C.ar    
   7 C7            -6.8326     4.0568     1.4844 C.ar    
   8 N8            -8.7966     1.3756     2.5334 N.1     
   9 N9            -1.8524     7.7257     1.5146 N.am    
  10 C10           -2.3220     7.1896     0.2297 C.3     
  11 C11           -3.5732     6.3412     0.4772 C.3     
  12 C12           -3.2607     5.2728     1.5275 C.3     
  13 C13           -2.8671     5.9482     2.8432 C.3     
  14 C14           -1.6079     6.7922     2.6225 C.3     
  15 F15           -2.2033     4.4740     1.0794 F       
  16 C16           -1.6445     9.0480     1.6721 C.2     
  17 C17           -1.2576     9.5831     2.9951 C.ar    
  18 C18           -2.0165    10.5931     3.5910 C.ar    
  19 C19           -1.6564    11.0935     4.8261 C.ar    
  20 C20           -0.5448    10.6000     5.4806 C.ar    
  21 C21            0.2221     9.5903     4.8965 C.ar    
  22 C22           -0.1385     9.0770     3.6529 C.ar    
  23 O23           -1.7751     9.8006     0.7267 O.2     
  24 N24            2.8809     8.7319     7.1007 N.2     
  25 N25            1.8085     9.3791     6.8121 N.2     
  26 C26            1.4127     9.0633     5.5991 C.2     
  27 N27            2.3111     8.1544     5.1095 N.pl3   
  28 C28            3.2291     7.9717     6.0973 C.2     
  29 C29            4.4273     7.0593     6.0435 C.3     
  30 C30            5.6934     7.8615     6.3510 C.3     
  31 O31            6.8296     6.9963     6.3000 O.3     
  32 C32            8.0705     7.6498     6.5740 C.3     
  33 C33           -3.2306    11.1379     2.8838 C.3     
  34 C34           -4.4102    10.1852     3.0880 C.3     
  35 C35           -0.1587    11.1530     6.8282 C.3     
  36 C36            0.0351    12.6786     6.8355 C.3     
  37 C37           -0.6650    12.6821     8.2047 C.3     
  38 C38           -1.3555    11.3796     7.7670 C.3     
  39 H39           -5.3756     1.4705     3.1317 H       
  40 H40           -3.3928     2.8786     2.7642 H       
  41 H41           -5.8008     5.7860     0.7765 H       
  42 H42           -7.7947     4.3881     1.1223 H       
  43 H43           -2.5655     8.0124    -0.4424 H       
  44 H44           -1.5427     6.5705    -0.2146 H       
  45 H45           -4.3804     6.9795     0.8365 H       
  46 H46           -3.8760     5.8596    -0.4526 H       
  47 H47           -3.6810     6.5903     3.1803 H       
  48 H48           -2.6674     5.1871     3.5974 H       
  49 H49           -0.7703     6.1407     2.3733 H       
  50 H50           -1.3802     7.3529     3.5292 H       
  51 H51           -2.2462    11.8747     5.2824 H       
  52 H52            0.4494     8.2932     3.1985 H       
  53 H53            2.2965     7.7283     4.2382 H       
  54 H54            4.3125     6.2649     6.7810 H       
  55 H55            4.5069     6.6223     5.0481 H       
  56 H56            5.8082     8.6559     5.6136 H       
  57 H57            5.6138     8.2985     7.3464 H       
  58 H58            8.8831     6.9257     6.5158 H       
  59 H59            8.2347     8.4399     5.8412 H       
  60 H60            8.0403     8.0824     7.5741 H       
  61 H61           -3.4798    12.1174     3.2919 H       
  62 H62           -3.0192    11.2313     1.8185 H       
  63 H63           -4.1610     9.2057     2.6798 H       
  64 H64           -4.6216    10.0918     4.1532 H       
  65 H65           -5.2883    10.5793     2.5765 H       
  66 H66            0.6632    10.6063     7.2905 H       
  67 H67            1.0800    12.9858     6.8786 H       
  68 H68           -0.5268    13.1938     6.0565 H       
  69 H69            0.0178    12.5534     9.0445 H       
  70 H70           -1.3530    13.5164     8.3412 H       
  71 H71           -2.2976    11.5397     7.2427 H       
  72 H72           -1.4332    10.6381     8.5622 H       
@<TRIPOS>BOND
   1    1    2 1
   2    1    8 3
   3    2    3 ar
   4    2    7 ar
   5    3    4 ar
   6    3   39 1
   7    4    5 ar
   8    4   40 1
   9    5    6 ar
  10    5   12 1
  11    6    7 ar
  12    6   41 1
  13    7   42 1
  14    9   10 1
  15    9   14 1
  16    9   16 am
  17   10   11 1
  18   10   43 1
  19   10   44 1
  20   11   12 1
  21   11   45 1
  22   11   46 1
  23   12   13 1
  24   12   15 1
  25   13   14 1
  26   13   47 1
  27   13   48 1
  28   14   49 1
  29   14   50 1
  30   16   17 1
  31   16   23 2
  32   17   18 ar
  33   17   22 ar
  34   18   19 ar
  35   18   33 1
  36   19   20 ar
  37   19   51 1
  38   20   21 ar
  39   20   35 1
  40   21   22 ar
  41   21   26 1
  42   22   52 1
  43   24   25 1
  44   24   28 2
  45   25   26 2
  46   26   27 1
  47   27   28 1
  48   27   53 1
  49   28   29 1
  50   29   30 1
  51   29   54 1
  52   29   55 1
  53   30   31 1
  54   30   56 1
  55   30   57 1
  56   31   32 1
  57   32   58 1
  58   32   59 1
  59   32   60 1
  60   33   34 1
  61   33   61 1
  62   33   62 1
  63   34   63 1
  64   34   64 1
  65   34   65 1
  66   35   36 1
  67   35   38 1
  68   35   66 1
  69   36   37 1
  70   36   67 1
  71   36   68 1
  72   37   38 1
  73   37   69 1
  74   37   70 1
  75   38   71 1
  76   38   72 1

#	End of record

