#	Name: ASD01810392
#	Creating user name:	WinNT
#	Creation time:	15. 06. 2019 19:24

#	Modifying user name:	WinNT
#	Modification time:	15. 06. 2019 19:24

#	Program:	/corina/corina34_cracker 3.40 0067  02.08.2006

@<TRIPOS>MOLECULE
ASD01810392
  19   19    0    0    0
SMALL
NO_CHARGES


@<TRIPOS>ATOM
   1 O1            -0.0173     1.4282     0.0099 O.3     
   2 C2             0.0021    -0.0041     0.0020 C.3     
   3 C3             1.4796    -0.4507     0.0295 C.3     
   4 C4             2.1925     0.8037     0.6040 C.3     
   5 C5             1.3259     1.9371    -0.0002 C.3     
   6 C6             1.6644    -1.6370     0.9403 C.2     
   7 O7             2.3855    -1.5506     1.9060 O.2     
   8 O8             1.0280    -2.7895     0.6789 O.3     
   9 C9             1.2529    -3.8901     1.5989 C.3     
  10 H10           -0.5160    -0.3857     0.8818 H       
  11 H11           -0.4798    -0.3754    -0.9024 H       
  12 H12            1.8364    -0.6732    -0.9762 H       
  13 H13            2.1505     0.8151     1.6932 H       
  14 H14            3.2222     0.8662     0.2518 H       
  15 H15            1.6416     2.1514    -1.0212 H       
  16 H16            1.3950     2.8347     0.6143 H       
  17 H17            2.3140    -4.1388     1.6156 H       
  18 H18            0.9322    -3.5989     2.5991 H       
  19 H19            0.6812    -4.7590     1.2727 H       
@<TRIPOS>BOND
   1    1    2 1
   2    1    5 1
   3    2    3 1
   4    2   10 1
   5    2   11 1
   6    3    4 1
   7    3    6 1
   8    3   12 1
   9    4    5 1
  10    4   13 1
  11    4   14 1
  12    5   15 1
  13    5   16 1
  14    6    7 2
  15    6    8 1
  16    8    9 1
  17    9   17 1
  18    9   18 1
  19    9   19 1

#	End of record

