#	Name: ASD09890075
#	Creating user name:	WinNT
#	Creation time:	15. 06. 2019 21:24

#	Modifying user name:	WinNT
#	Modification time:	15. 06. 2019 21:24

#	Program:	/corina/corina34_cracker 3.40 0067  02.08.2006

@<TRIPOS>MOLECULE
ASD09890075
  42   45    0    0    0
SMALL
NO_CHARGES


@<TRIPOS>ATOM
   1 C1            -0.0176     1.3671     0.0632 C.2     
   2 N2            -0.0054    -0.0002     0.0335 N.pl3   
   3 C3            -1.2996    -0.4352     0.1156 C.2     
   4 N4            -2.0760     0.6192     0.1925 N.2     
   5 N5            -1.2621     1.7591     0.1649 N.2     
   6 S6            -1.8303    -2.1154     0.1170 S.3     
   7 C7            -3.6340    -1.9736     0.2474 C.3     
   8 C8             1.1336    -0.8132    -0.0646 C.ar    
   9 C9             2.0774    -0.8326     0.9581 C.ar    
  10 C10            3.1859    -1.6517     0.8155 C.ar    
  11 C11            3.3173    -2.4165    -0.3283 C.ar    
  12 N12            2.4046    -2.3752    -1.2794 N.ar    
  13 C13            1.3330    -1.6143    -1.1807 C.ar    
  14 C14           -4.2815    -3.3651     0.1370 C.3     
  15 C15           -5.0399    -3.6044     1.4589 C.3     
  16 C16           -5.3173    -2.1802     2.0009 C.3     
  17 C17           -4.0215    -1.4159     1.6326 C.3     
  18 O18            1.0702     2.1752     0.0035 O.3     
  19 C19            0.8650     3.5152    -0.0919 C.ar    
  20 C20           -0.4172     4.0098    -0.2837 C.ar    
  21 C21            1.9366     4.3910     0.0081 C.ar    
  22 C22            1.7258     5.7527    -0.0887 C.ar    
  23 C23            0.4470     6.2436    -0.2848 C.ar    
  24 C24           -0.6236     5.3722    -0.3800 C.ar    
  25 Cl25           0.1847     7.9555    -0.4050 Cl      
  26 H26           -4.0147    -1.3211    -0.5384 H       
  27 H27            1.9491    -0.2240     1.8410 H       
  28 H28            3.9387    -1.6918     1.5889 H       
  29 H29            4.1795    -3.0564    -0.4450 H       
  30 H30            0.6072    -1.6069    -1.9805 H       
  31 H31           -4.9771    -3.3877    -0.7019 H       
  32 H32           -3.5119    -4.1256     0.0050 H       
  33 H33           -5.9760    -4.1305     1.2718 H       
  34 H34           -4.4196    -4.1647     2.1585 H       
  35 H35           -6.1808    -1.7389     1.5031 H       
  36 H36           -5.4608    -2.1992     3.0812 H       
  37 H37           -3.2367    -1.6227     2.3602 H       
  38 H38           -4.2144    -0.3448     1.5722 H       
  39 H39           -1.2531     3.3300    -0.3581 H       
  40 H40            2.9347     4.0083     0.1618 H       
  41 H41            2.5596     6.4347    -0.0109 H       
  42 H42           -1.6210     5.7574    -0.5330 H       
@<TRIPOS>BOND
   1    1    2 1
   2    1   18 1
   3    1    5 2
   4    2    3 1
   5    2    8 1
   6    3    4 2
   7    3    6 1
   8    4    5 1
   9    6    7 1
  10    7   14 1
  11    7   17 1
  12    7   26 1
  13    8    9 ar
  14    8   13 ar
  15    9   10 ar
  16    9   27 1
  17   10   11 ar
  18   10   28 1
  19   11   12 ar
  20   11   29 1
  21   12   13 ar
  22   13   30 1
  23   14   15 1
  24   14   31 1
  25   14   32 1
  26   15   16 1
  27   15   33 1
  28   15   34 1
  29   16   17 1
  30   16   35 1
  31   16   36 1
  32   17   37 1
  33   17   38 1
  34   18   19 1
  35   19   20 ar
  36   19   21 ar
  37   20   24 ar
  38   20   39 1
  39   21   22 ar
  40   21   40 1
  41   22   23 ar
  42   22   41 1
  43   23   24 ar
  44   23   25 1
  45   24   42 1

#	End of record

