#	Name: ASD02038208
#	Creating user name:	WinNT
#	Creation time:	15. 06. 2019 20:16

#	Modifying user name:	WinNT
#	Modification time:	15. 06. 2019 20:16

#	Program:	/corina/corina34_cracker 3.40 0067  02.08.2006

@<TRIPOS>MOLECULE
ASD02038208
  52   55    0    0    0
SMALL
NO_CHARGES


@<TRIPOS>ATOM
   1 C1            -0.0187     1.5263     0.0104 C.3     
   2 C2             0.0021    -0.0041     0.0020 C.3     
   3 N3             0.7238    -0.4751    -1.1883 N.3     
   4 C4             0.7003    -1.9415    -1.2723 C.3     
   5 C5             1.6601    -2.4049    -2.3699 C.3     
   6 O6             1.2550    -1.8495    -3.6227 O.3     
   7 C7             1.6357    -3.9322    -2.4573 C.3     
   8 O8             2.6158    -4.3711    -3.4001 O.3     
   9 C9             2.7249    -5.7119    -3.5982 C.ar    
  10 C10            3.6558    -6.2100    -4.4996 C.ar    
  11 C11            1.9102    -6.5884    -2.8961 C.ar    
  12 C12            2.0185    -7.9490    -3.0936 C.ar    
  13 C13            2.9480    -8.4539    -4.0008 C.ar    
  14 C14            3.7618    -7.5685    -4.6955 C.ar    
  15 C15            2.1034     0.0310    -1.1988 C.3     
  16 C16            2.0826     1.5614    -1.1904 C.3     
  17 N17            1.3610     2.0324    -0.0000 N.3     
  18 C18            1.3833     3.4271     0.0798 C.ar    
  19 C19            0.7547     4.0738     1.1362 C.ar    
  20 C20            0.7784     5.4526     1.2125 C.ar    
  21 C21            1.4270     6.1896     0.2376 C.ar    
  22 C22            2.0540     5.5482    -0.8158 C.ar    
  23 C23            2.0390     4.1695    -0.8940 C.ar    
  24 Br24           1.4561     8.0774     0.3450 Br      
  25 N25            3.2417    -9.7695    -4.3691 N.am    
  26 C26            4.2182    -9.8333    -5.2898 C.2     
  27 C27            4.6455    -8.4116    -5.5858 C.3     
  28 O28            4.6739   -10.8410    -5.7879 O.2     
  29 H29           -0.5453     1.8877    -0.8728 H       
  30 H30           -0.5283     1.8781     0.9074 H       
  31 H31            0.5048    -0.3659     0.8989 H       
  32 H32           -1.0203    -0.3815    -0.0195 H       
  33 H33            1.0093    -2.3651    -0.3167 H       
  34 H34           -0.3100    -2.2758    -1.5082 H       
  35 H35            2.6704    -2.0706    -2.1340 H       
  36 H36            0.3635    -2.1054    -3.8965 H       
  37 H37            1.8583    -4.3558    -1.4780 H       
  38 H38            0.6481    -4.2619    -2.7798 H       
  39 H39            4.2955    -5.5330    -5.0464 H       
  40 H40            1.1880    -6.2034    -2.1914 H       
  41 H41            1.3812    -8.6252    -2.5432 H       
  42 H42            2.6300    -0.3304    -0.3155 H       
  43 H43            2.6130    -0.3208    -2.0958 H       
  44 H44            3.1050     1.9388    -1.1689 H       
  45 H45            1.5799     1.9232    -2.0873 H       
  46 H46            0.2476     3.4990     1.8971 H       
  47 H47            0.2898     5.9559     2.0336 H       
  48 H48            2.5593     6.1262    -1.5755 H       
  49 H49            2.5286     3.6693    -1.7166 H       
  50 H50            2.7927   -10.5471    -4.0020 H       
  51 H51            4.4709    -8.1709    -6.6345 H       
  52 H52            5.6951    -8.2671    -5.3296 H       
@<TRIPOS>BOND
   1    1    2 1
   2    1   17 1
   3    1   29 1
   4    1   30 1
   5    2    3 1
   6    2   31 1
   7    2   32 1
   8    3    4 1
   9    3   15 1
  10    4    5 1
  11    4   33 1
  12    4   34 1
  13    5    6 1
  14    5    7 1
  15    5   35 1
  16    6   36 1
  17    7    8 1
  18    7   37 1
  19    7   38 1
  20    8    9 1
  21    9   10 ar
  22    9   11 ar
  23   10   14 ar
  24   10   39 1
  25   11   12 ar
  26   11   40 1
  27   12   13 ar
  28   12   41 1
  29   13   14 ar
  30   13   25 1
  31   14   27 1
  32   15   16 1
  33   15   42 1
  34   15   43 1
  35   16   17 1
  36   16   44 1
  37   16   45 1
  38   17   18 1
  39   18   19 ar
  40   18   23 ar
  41   19   20 ar
  42   19   46 1
  43   20   21 ar
  44   20   47 1
  45   21   22 ar
  46   21   24 1
  47   22   23 ar
  48   22   48 1
  49   23   49 1
  50   25   26 am
  51   25   50 1
  52   26   27 1
  53   26   28 2
  54   27   51 1
  55   27   52 1

#	End of record

