#	Name: ASD04882349
#	Creating user name:	WinNT
#	Creation time:	15. 06. 2019 20:54

#	Modifying user name:	WinNT
#	Modification time:	15. 06. 2019 20:54

#	Program:	/corina/corina34_cracker 3.40 0067  02.08.2006

@<TRIPOS>MOLECULE
ASD04882349
  81   86    0    0    0
SMALL
NO_CHARGES


@<TRIPOS>ATOM
   1 N1            -0.0169     1.3970     0.0097 N.am    
   2 C2             0.1094     0.0022    -0.0339 C.ar    
   3 C3            -1.0280    -0.8060     0.0461 C.ar    
   4 C4            -0.9042    -2.1900     0.0030 C.ar    
   5 C5             0.3392    -2.7697    -0.1185 C.ar    
   6 C6             1.4808    -1.9674    -0.1985 C.ar    
   7 C7             1.3585    -0.5755    -0.1616 C.ar    
   8 N8            -2.2871    -0.2241     0.1695 N.3     
   9 C9            -3.1532    -0.5990    -0.9569 C.3     
  10 C10           -2.9099    -0.5831     1.4512 C.3     
  11 C11           -4.2534     0.1380     1.5823 C.3     
  12 N12           -5.1196    -0.2369     0.4559 N.3     
  13 C13           -4.4968     0.1221    -0.8259 C.3     
  14 C14            2.8126    -2.5886    -0.3281 C.2     
  15 O15            3.8053    -1.8898    -0.3976 O.2     
  16 C16            0.9212     2.1768    -0.5632 C.2     
  17 C17            0.7444     3.6398    -0.5950 C.2     
  18 O18            1.9137     1.6734    -1.0539 O.2     
  19 N19            2.9290    -3.9307    -0.3695 N.am    
  20 C20           -6.3825     0.3467     0.5797 C.ar    
  21 C21           -7.5145    -0.4540     0.6593 C.ar    
  22 C22           -6.5086     1.7294     0.6291 C.ar    
  23 C23           -7.7586     2.3032     0.7515 C.ar    
  24 C24           -8.8843     1.5030     0.8253 C.ar    
  25 C25           -8.7619     0.1265     0.7816 C.ar    
  26 C26           -7.3821    -1.9544     0.6118 C.3     
  27 C27            1.6029     4.5465    -1.1366 C.2     
  28 N28           -0.3107     4.3377    -0.0937 N.2     
  29 C29           -0.1082     5.6027    -0.3108 C.2     
  30 O30            1.0597     5.7600    -0.9498 O.3     
  31 C31            4.2515    -4.5476    -0.4983 C.3     
  32 C32            4.1040    -6.0703    -0.5210 C.3     
  33 S33            5.7416    -6.8342    -0.6804 S.o2    
  34 C34           -1.0408     6.7168     0.0892 C.3     
  35 C35           -0.4996     7.7825     1.0443 C.3     
  36 C36           -0.7273     8.1214    -0.4302 C.3     
  37 O37            6.2919    -6.5708    -1.9638 O.2     
  38 O38            6.5049    -6.6283     0.5003 O.2     
  39 N39            5.4387    -8.4622    -0.6923 N.am    
  40 C40            5.1791    -9.2768    -1.8883 C.3     
  41 C41            5.3910    -9.3359     0.4942 C.3     
  42 C42            4.5039   -10.5329     0.0699 C.3     
  43 C43            4.9274   -10.7230    -1.4120 C.3     
  44 H44           -0.7816     1.8012     0.4487 H       
  45 H45           -1.7849    -2.8119     0.0654 H       
  46 H46            0.4321    -3.8452    -0.1517 H       
  47 H47            2.2388     0.0470    -0.2236 H       
  48 H48           -2.6761    -0.3116    -1.8939 H       
  49 H49           -3.3165    -1.6767    -0.9471 H       
  50 H50           -3.0703    -1.6606     1.4884 H       
  51 H51           -2.2553    -0.2842     2.2700 H       
  52 H52           -4.7305    -0.1494     2.5192 H       
  53 H53           -4.0902     1.2157     1.5725 H       
  54 H54           -4.3364     1.1996    -0.8630 H       
  55 H55           -5.1514    -0.1768    -1.6446 H       
  56 H56            2.1371    -4.4881    -0.3141 H       
  57 H57           -5.6300     2.3548     0.5723 H       
  58 H58           -7.8574     3.3780     0.7900 H       
  59 H59           -9.8608     1.9543     0.9217 H       
  60 H60           -9.6430    -0.4955     0.8394 H       
  61 H61           -7.2608    -2.3407     1.6239 H       
  62 H62           -8.2780    -2.3842     0.1638 H       
  63 H63           -6.5117    -2.2236     0.0135 H       
  64 H64            2.5426     4.3309    -1.6234 H       
  65 H65            4.7195    -4.2140    -1.4245 H       
  66 H66            4.8727    -4.2554     0.3484 H       
  67 H67            3.6361    -6.4039     0.4052 H       
  68 H68            3.4828    -6.3625    -1.3677 H       
  69 H69           -2.0902     6.4389     0.1878 H       
  70 H70           -1.1929     8.2060     1.7710 H       
  71 H71            0.5311     7.6778     1.3833 H       
  72 H72            0.1535     8.2396    -1.0613 H       
  73 H73           -1.5705     8.7678    -0.6736 H       
  74 H74            4.2993    -8.8999    -2.4098 H       
  75 H75            6.0447    -9.2499    -2.5502 H       
  76 H76            6.3927    -9.6791     0.7531 H       
  77 H77            4.9404    -8.8092     1.3354 H       
  78 H78            4.7370   -11.4200     0.6588 H       
  79 H79            3.4460   -10.2817     0.1468 H       
  80 H80            4.1242   -11.1844    -1.9865 H       
  81 H81            5.8403   -11.3148    -1.4793 H       
@<TRIPOS>BOND
   1    1    2 1
   2    1   16 am
   3    1   44 1
   4    2    3 ar
   5    2    7 ar
   6    3    4 ar
   7    3    8 1
   8    4    5 ar
   9    4   45 1
  10    5    6 ar
  11    5   46 1
  12    6    7 ar
  13    6   14 1
  14    7   47 1
  15    8    9 1
  16    8   10 1
  17    9   13 1
  18    9   48 1
  19    9   49 1
  20   10   11 1
  21   10   50 1
  22   10   51 1
  23   11   12 1
  24   11   52 1
  25   11   53 1
  26   12   13 1
  27   12   20 1
  28   13   54 1
  29   13   55 1
  30   14   15 2
  31   14   19 am
  32   16   18 2
  33   16   17 1
  34   17   27 2
  35   17   28 1
  36   19   31 1
  37   19   56 1
  38   20   21 ar
  39   20   22 ar
  40   21   26 1
  41   21   25 ar
  42   22   23 ar
  43   22   57 1
  44   23   24 ar
  45   23   58 1
  46   24   25 ar
  47   24   59 1
  48   25   60 1
  49   26   61 1
  50   26   62 1
  51   26   63 1
  52   27   30 1
  53   27   64 1
  54   28   29 2
  55   29   30 1
  56   29   34 1
  57   31   32 1
  58   31   65 1
  59   31   66 1
  60   32   33 1
  61   32   67 1
  62   32   68 1
  63   33   37 2
  64   33   38 2
  65   33   39 am
  66   34   35 1
  67   34   36 1
  68   34   69 1
  69   35   36 1
  70   35   70 1
  71   35   71 1
  72   36   72 1
  73   36   73 1
  74   39   40 1
  75   39   41 1
  76   40   43 1
  77   40   74 1
  78   40   75 1
  79   41   42 1
  80   41   76 1
  81   41   77 1
  82   42   43 1
  83   42   78 1
  84   42   79 1
  85   43   80 1
  86   43   81 1

#	End of record

