#	Name: ASD01810243
#	Creating user name:	WinNT
#	Creation time:	15. 06. 2019 19:24

#	Modifying user name:	WinNT
#	Modification time:	15. 06. 2019 19:24

#	Program:	/corina/corina34_cracker 3.40 0067  02.08.2006

@<TRIPOS>MOLECULE
ASD01810243
  47   51    0    0    0
SMALL
NO_CHARGES


@<TRIPOS>ATOM
   1 C1             0.0983     1.4760     0.3584 C.ar    
   2 C2             0.0801     0.0884     0.3506 C.ar    
   3 C3             1.2499    -0.6304     0.2197 C.ar    
   4 C4             2.4673     0.0387     0.0929 C.ar    
   5 C5             2.4808     1.4431     0.1009 C.ar    
   6 C6             1.2891     2.1563     0.2347 C.ar    
   7 N7             3.6442    -0.6674    -0.0382 N.pl3   
   8 C8             4.8372    -0.0726    -0.1624 C.2     
   9 C9             4.9772     1.3008    -0.1678 C.2     
  10 C10            3.7745     2.1384    -0.0340 C.2     
  11 O11            3.8447     3.3549    -0.0334 O.2     
  12 C12            6.3049     1.9160    -0.3049 C.2     
  13 O13            6.4286     3.2584    -0.3088 O.3     
  14 O14            7.2915     1.2143    -0.4148 O.2     
  15 C15            3.5869    -2.1313    -0.0413 C.3     
  16 C16            3.4437    -2.6254    -1.4578 C.ar    
  17 C17            4.5584    -2.7704    -2.2621 C.ar    
  18 N18            4.4463    -3.2011    -3.5025 N.ar    
  19 C19            3.2679    -3.5115    -4.0271 C.ar    
  20 C20            2.1026    -3.3890    -3.2726 C.ar    
  21 C21            2.1917    -2.9446    -1.9652 C.ar    
  22 C22            3.1901    -3.9924    -5.4279 C.ar    
  23 F23            1.2168    -1.9809     0.2146 F       
  24 C24            1.9433    -4.2210    -6.0194 C.ar    
  25 C25            1.8539    -4.6635    -7.3076 C.ar    
  26 C26            3.0083    -4.8930    -8.0509 C.ar    
  27 C27            4.2688    -4.6660    -7.4664 C.ar    
  28 C28            4.3549    -4.2094    -6.1520 C.ar    
  29 N29            3.2313    -5.3283    -9.3376 N.pl3   
  30 C30            4.5760    -5.3839    -9.5845 C.2     
  31 C31            5.2582    -4.9967    -8.4954 C.2     
  32 H32           -0.8265     2.0250     0.4576 H       
  33 H33           -0.8599    -0.4342     0.4484 H       
  34 H34            1.3004     3.2362     0.2403 H       
  35 H35            5.7194    -0.6877    -0.2612 H       
  36 H36            7.3220     3.6166    -0.4015 H       
  37 H37            4.5033    -2.5317     0.3923 H       
  38 H38            2.7314    -2.4626     0.5473 H       
  39 H39            5.5343    -2.5272    -1.8688 H       
  40 H40            1.1439    -3.6414    -3.7010 H       
  41 H41            1.3061    -2.8399    -1.3561 H       
  42 H42            1.0419    -4.0459    -5.4509 H       
  43 H43            0.8846    -4.8365    -7.7513 H       
  44 H44            5.3191    -4.0331    -5.6985 H       
  45 H45            2.5380    -5.5612    -9.9748 H       
  46 H46            5.0225    -5.6941   -10.5177 H       
  47 H47            6.3321    -4.9397    -8.3964 H       
@<TRIPOS>BOND
   1    1    2 ar
   2    1    6 ar
   3    1   32 1
   4    2    3 ar
   5    2   33 1
   6    3    4 ar
   7    3   23 1
   8    4    5 ar
   9    4    7 1
  10    5    6 ar
  11    5   10 1
  12    6   34 1
  13    7    8 1
  14    7   15 1
  15    8    9 2
  16    8   35 1
  17    9   10 1
  18    9   12 1
  19   10   11 2
  20   12   13 1
  21   12   14 2
  22   13   36 1
  23   15   16 1
  24   15   37 1
  25   15   38 1
  26   16   17 ar
  27   16   21 ar
  28   17   18 ar
  29   17   39 1
  30   18   19 ar
  31   19   20 ar
  32   19   22 1
  33   20   21 ar
  34   20   40 1
  35   21   41 1
  36   22   24 ar
  37   22   28 ar
  38   24   25 ar
  39   24   42 1
  40   25   26 ar
  41   25   43 1
  42   26   27 ar
  43   26   29 1
  44   27   28 ar
  45   27   31 1
  46   28   44 1
  47   29   30 1
  48   29   45 1
  49   30   31 2
  50   30   46 1
  51   31   47 1

#	End of record

