#	Name: ASD03092680
#	Creating user name:	WinNT
#	Creation time:	15. 06. 2019 20:33

#	Modifying user name:	WinNT
#	Modification time:	15. 06. 2019 20:33

#	Program:	/corina/corina34_cracker 3.40 0067  02.08.2006

@<TRIPOS>MOLECULE
ASD03092680
  44   46    0    0    0
SMALL
NO_CHARGES


@<TRIPOS>ATOM
   1 C1            -0.0187     1.5258     0.0104 C.3     
   2 C2             0.0021    -0.0041     0.0020 C.3     
   3 C3             1.3165     0.7789    -0.0063 C.3     
   4 C4            -0.4176     2.2092     1.2929 C.2     
   5 O5            -0.7068     1.5482     2.2678 O.2     
   6 N6            -0.4530     3.5550     1.3566 N.am    
   7 C7            -0.8408     4.2194     2.6034 C.3     
   8 C8             0.3833     4.3550     3.5112 C.3     
   9 C9            -2.3659     8.0187     1.7435 C.ar    
  10 N10           -2.9472     7.2867     2.6800 N.ar    
  11 C11           -2.4907     6.0809     2.9768 C.ar    
  12 C12           -1.3904     5.5879     2.2934 C.ar    
  13 C13           -0.8065     6.3818     1.3189 C.ar    
  14 N14           -1.3140     7.5784     1.0723 N.ar    
  15 O15           -2.8630     9.2468     1.4612 O.3     
  16 C16           -2.1992     9.9969     0.4420 C.3     
  17 C17           -2.8979    11.3465     0.2652 C.3     
  18 C18           -0.4023    -0.6984    -1.2729 C.ar    
  19 C19           -1.4808    -1.5632    -1.2768 C.ar    
  20 C20           -1.8517    -2.2002    -2.4462 C.ar    
  21 C21           -1.1445    -1.9720    -3.6118 C.ar    
  22 C22           -0.0666    -1.1066    -3.6081 C.ar    
  23 C23            0.3016    -0.4663    -2.4397 C.ar    
  24 H24           -0.3248     2.0300    -0.9061 H       
  25 H25           -0.2728    -0.5162     0.9241 H       
  26 H26            1.8888     0.7918    -0.9339 H       
  27 H27            1.9064     0.7818     0.9103 H       
  28 H28           -0.2217     4.0837     0.5769 H       
  29 H29           -1.6040     3.6273     3.1085 H       
  30 H30            1.1464     4.9471     3.0061 H       
  31 H31            0.0947     4.8493     4.4388 H       
  32 H32            0.7808     3.3651     3.7354 H       
  33 H33           -2.9693     5.4884     3.7424 H       
  34 H34            0.0524     6.0281     0.7679 H       
  35 H35           -1.1606    10.1603     0.7294 H       
  36 H36           -2.2338     9.4441    -0.4967 H       
  37 H37           -3.9366    11.1830    -0.0222 H       
  38 H38           -2.8634    11.8993     1.2040 H       
  39 H39           -2.3916    11.9186    -0.5122 H       
  40 H40           -2.0333    -1.7415    -0.3661 H       
  41 H41           -2.6938    -2.8764    -2.4491 H       
  42 H42           -1.4339    -2.4702    -4.5253 H       
  43 H43            0.4861    -0.9286    -4.5187 H       
  44 H44            1.1415     0.2128    -2.4376 H       
@<TRIPOS>BOND
   1    1    2 1
   2    1    3 1
   3    1    4 1
   4    1   24 1
   5    2    3 1
   6    2   18 1
   7    2   25 1
   8    3   26 1
   9    3   27 1
  10    4    5 2
  11    4    6 am
  12    6    7 1
  13    6   28 1
  14    7    8 1
  15    7   12 1
  16    7   29 1
  17    8   30 1
  18    8   31 1
  19    8   32 1
  20    9   10 ar
  21    9   14 ar
  22    9   15 1
  23   10   11 ar
  24   11   12 ar
  25   11   33 1
  26   12   13 ar
  27   13   14 ar
  28   13   34 1
  29   15   16 1
  30   16   17 1
  31   16   35 1
  32   16   36 1
  33   17   37 1
  34   17   38 1
  35   17   39 1
  36   18   19 ar
  37   18   23 ar
  38   19   20 ar
  39   19   40 1
  40   20   21 ar
  41   20   41 1
  42   21   22 ar
  43   21   42 1
  44   22   23 ar
  45   22   43 1
  46   23   44 1

#	End of record

