#	Name: ASD09890117
#	Creating user name:	WinNT
#	Creation time:	15. 06. 2019 21:24

#	Modifying user name:	WinNT
#	Modification time:	15. 06. 2019 21:24

#	Program:	/corina/corina34_cracker 3.40 0067  02.08.2006

@<TRIPOS>MOLECULE
ASD09890117
  35   37    0    0    0
SMALL
NO_CHARGES


@<TRIPOS>ATOM
   1 C1            -0.0169     1.3925     0.0097 C.ar    
   2 C2             0.0021    -0.0041     0.0020 C.ar    
   3 C3             2.4188     0.0304    -0.0209 C.ar    
   4 C4             2.3901     1.4066    -0.0137 C.ar    
   5 C5             1.1756     2.0912     0.0021 C.ar    
   6 C6            -1.0392    -1.0345     0.0056 C.2     
   7 C7            -0.4158    -2.2234    -0.0071 C.2     
   8 N8             0.9396    -2.0393    -0.0186 N.pl3   
   9 C9             1.2291    -0.6906    -0.0134 C.ar    
  10 C10           -1.1070    -3.5625    -0.0081 C.3     
  11 N11            1.1639     3.4907     0.0097 N.pl3   
  12 C12            2.4264     4.2339     0.0016 C.3     
  13 C13            2.1387     5.7131     0.0123 C.ar    
  14 C14            1.6066     8.3838     0.1112 C.ar    
  15 N15            1.5633     7.6597     1.2137 N.ar    
  16 C16            1.8165     6.3603     1.2012 C.ar    
  17 C17            2.1969     6.4470    -1.1585 C.ar    
  18 C18            1.9247     7.8077    -1.1020 C.ar    
  19 N19            1.7597     5.6359     2.3862 N.pl3   
  20 H20           -0.9575     1.9231     0.0171 H       
  21 H21            3.3652    -0.4897    -0.0334 H       
  22 H22            3.3168     1.9612    -0.0192 H       
  23 H23           -2.1064    -0.8690     0.0171 H       
  24 H24            1.5987    -2.7509    -0.0285 H       
  25 H25           -1.2835    -3.8795    -1.0360 H       
  26 H26           -0.4779    -4.2965     0.4955 H       
  27 H27           -2.0595    -3.4802     0.5154 H       
  28 H28            0.3199     3.9687     0.0203 H       
  29 H29            3.0086     3.9706     0.8847 H       
  30 H30            2.9916     3.9801    -0.8952 H       
  31 H31            1.3938     9.4415     0.1595 H       
  32 H32            2.4486     5.9726    -2.0955 H       
  33 H33            1.9574     8.4081    -1.9991 H       
  34 H34            1.5352     6.0827     3.2174 H       
  35 H35            1.9444     4.6837     2.3819 H       
@<TRIPOS>BOND
   1    1    2 ar
   2    1    5 ar
   3    1   20 1
   4    2    9 ar
   5    2    6 1
   6    3    4 ar
   7    3    9 ar
   8    3   21 1
   9    4    5 ar
  10    4   22 1
  11    5   11 1
  12    6    7 2
  13    6   23 1
  14    7    8 1
  15    7   10 1
  16    8    9 1
  17    8   24 1
  18   10   25 1
  19   10   26 1
  20   10   27 1
  21   11   12 1
  22   11   28 1
  23   12   13 1
  24   12   29 1
  25   12   30 1
  26   13   17 ar
  27   13   16 ar
  28   14   15 ar
  29   14   18 ar
  30   14   31 1
  31   15   16 ar
  32   16   19 1
  33   17   18 ar
  34   17   32 1
  35   18   33 1
  36   19   34 1
  37   19   35 1

#	End of record

