#	Name: ASD01810234
#	Creating user name:	WinNT
#	Creation time:	15. 06. 2019 19:24

#	Modifying user name:	WinNT
#	Modification time:	15. 06. 2019 19:24

#	Program:	/corina/corina34_cracker 3.40 0067  02.08.2006

@<TRIPOS>MOLECULE
ASD01810234
  42   45    0    0    0
SMALL
NO_CHARGES


@<TRIPOS>ATOM
   1 C1            -0.0169     1.3838    -0.0455 C.ar    
   2 C2             0.0020    -0.0038    -0.0526 C.ar    
   3 C3             1.1973    -0.6918    -0.0490 C.ar    
   4 C4             2.4035     0.0088    -0.0387 C.ar    
   5 C5             2.3796     1.4130    -0.0321 C.ar    
   6 C6             1.1623     2.0949    -0.0352 C.ar    
   7 N7             3.6055    -0.6664    -0.0346 N.pl3   
   8 C8             4.7891    -0.0407    -0.0244 C.2     
   9 C9             4.8932     1.3358    -0.0167 C.2     
  10 C10            3.6618     2.1419    -0.0212 C.2     
  11 O11            3.6999     3.3598    -0.0151 O.2     
  12 C12            6.2115     1.9855    -0.0041 C.2     
  13 O13            6.3000     3.3306     0.0034 O.3     
  14 O14            7.2221     1.3098    -0.0004 O.2     
  15 C15            3.5869    -2.1313    -0.0413 C.3     
  16 C16            3.4437    -2.6254    -1.4578 C.ar    
  17 N17            2.2417    -2.7297    -1.9905 N.ar    
  18 C18            2.0626    -3.1562    -3.2241 C.ar    
  19 C19            3.1514    -3.5151    -4.0153 C.ar    
  20 C20            4.4384    -3.4158    -3.4795 C.ar    
  21 C21            4.5752    -2.9571    -2.1808 C.ar    
  22 C22            2.9480    -3.9958    -5.4045 C.ar    
  23 F23            1.2000    -2.0428    -0.0551 F       
  24 C24            4.0368    -4.3547    -6.1957 C.ar    
  25 N25            3.8577    -4.7820    -7.4290 N.ar    
  26 C26            2.6556    -4.8872    -7.9615 C.ar    
  27 C27            1.5245    -4.5498    -7.2405 C.ar    
  28 C28            1.6606    -4.1011    -5.9382 C.ar    
  29 H29           -0.9608     1.9085    -0.0525 H       
  30 H30           -0.9293    -0.5508    -0.0605 H       
  31 H31            1.1450     3.1747    -0.0305 H       
  32 H32            5.6924    -0.6326    -0.0217 H       
  33 H33            7.1886     3.7120     0.0116 H       
  34 H34            4.5175    -2.5084     0.3827 H       
  35 H35            2.7459    -2.4866     0.5542 H       
  36 H36            1.0625    -3.2284    -3.6254 H       
  37 H37            5.3044    -3.6862    -4.0654 H       
  38 H38            5.5543    -2.8669    -1.7340 H       
  39 H39            5.0369    -4.2818    -5.7947 H       
  40 H40            2.5530    -5.2420    -8.9763 H       
  41 H41            0.5454    -4.6395    -7.6874 H       
  42 H42            0.7945    -3.8312    -5.3522 H       
@<TRIPOS>BOND
   1    1    2 ar
   2    1    6 ar
   3    1   29 1
   4    2    3 ar
   5    2   30 1
   6    3    4 ar
   7    3   23 1
   8    4    5 ar
   9    4    7 1
  10    5    6 ar
  11    5   10 1
  12    6   31 1
  13    7    8 1
  14    7   15 1
  15    8    9 2
  16    8   32 1
  17    9   10 1
  18    9   12 1
  19   10   11 2
  20   12   13 1
  21   12   14 2
  22   13   33 1
  23   15   16 1
  24   15   34 1
  25   15   35 1
  26   16   17 ar
  27   16   21 ar
  28   17   18 ar
  29   18   19 ar
  30   18   36 1
  31   19   20 ar
  32   19   22 1
  33   20   21 ar
  34   20   37 1
  35   21   38 1
  36   22   24 ar
  37   22   28 ar
  38   24   25 ar
  39   24   39 1
  40   25   26 ar
  41   26   27 ar
  42   26   40 1
  43   27   28 ar
  44   27   41 1
  45   28   42 1

#	End of record

