#	Name: ASD01410832
#	Creating user name:	WinNT
#	Creation time:	15. 06. 2019 19:18

#	Modifying user name:	WinNT
#	Modification time:	15. 06. 2019 19:18

#	Program:	/corina/corina34_cracker 3.40 0067  02.08.2006

@<TRIPOS>MOLECULE
ASD01410832
 112  118    0    0    0
SMALL
NO_CHARGES


@<TRIPOS>ATOM
   1 C1             0.2822     2.4414     2.1073 C.3     
   2 C2             0.4002     1.0579     2.7880 C.3     
   3 N3             0.8134     1.3624     4.1734 N.am    
   4 C4             0.3317     2.7060     4.5170 C.3     
   5 C5            -0.3322     3.2923     3.2521 C.3     
   6 O6             1.5674     2.9394     1.7302 O.3     
   7 C7            -0.6780     2.6188     5.6323 C.2     
   8 O8            -0.9724     1.5396     6.1008 O.2     
   9 N9            -1.2539     3.7402     6.1091 N.am    
  10 C10            1.5294     0.2543     2.1336 C.3     
  11 N11            1.8171    -0.9002     2.9943 N.am    
  12 C12            2.1550    -0.7140     4.4037 C.3     
  13 C13            1.5424     0.5444     4.9512 C.2     
  14 O14            1.7095     0.8274     6.1186 O.2     
  15 C15            1.6398    -1.9114     5.2046 C.3     
  16 C16            1.8742    -1.6659     6.6965 C.3     
  17 C17            0.1425    -2.0914     4.9465 C.3     
  18 C18           -2.3189     3.6477     7.1109 C.3     
  19 C19           -3.5970     3.0007     6.6430 C.2     
  20 N20           -3.7506     2.6737     5.3445 N.am    
  21 O21           -4.4873     2.7743     7.4348 O.2     
  22 S22           -5.1989     2.0775     4.8066 S.o2    
  23 C23           -6.3646     3.4491     5.0316 C.3     
  24 C24           -1.9027     3.4191     8.5654 C.3     
  25 C25           -2.4340     4.7860     8.1267 C.3     
  26 C26           -7.8403     3.1784     4.7315 C.3     
  27 C27           -7.3710     3.3399     6.1788 C.3     
  28 O28           -4.9835     1.8278     3.4244 O.2     
  29 O29           -5.4969     1.0175     5.7049 O.2     
  30 C30           -2.8162     2.5516     9.4336 C.3     
  31 C31           -2.1690     2.3422    10.8040 C.3     
  32 C32            1.6021     3.8700     0.7444 C.ar    
  33 C33            2.8324     4.3963     0.2858 C.ar    
  34 C34            0.4467     4.3213     0.1623 C.ar    
  35 C35            0.5096     5.2833    -0.8551 C.ar    
  36 N36            1.6647     5.7725    -1.2735 N.ar    
  37 C37            2.8242     5.3668    -0.7464 C.ar    
  38 C38           -0.7440     5.7617    -1.4748 C.2     
  39 S39           -2.3666     5.2295    -1.0414 S.3     
  40 C40            4.0458     5.8948    -1.1994 C.ar    
  41 C41            5.2252     5.4587    -0.6380 C.ar    
  42 C42            5.2208     4.4974     0.3767 C.ar    
  43 C43            4.0512     3.9736     0.8357 C.ar    
  44 Cl44           4.0675     7.0890    -2.4593 Cl      
  45 O45            6.4063     5.9682    -1.0755 O.3     
  46 C46            7.5952     5.4760    -0.4540 C.3     
  47 N47           -0.8268     6.6486    -2.4251 N.2     
  48 C48           -2.0274     6.9531    -2.8547 C.2     
  49 C49           -3.0407     6.3115    -2.2586 C.2     
  50 C50           -2.2535     7.9639    -3.9493 C.3     
  51 C51           -2.3681     7.2426    -5.2938 C.3     
  52 C52           -3.5455     8.7351    -3.6725 C.3     
  53 O53            1.5497    -2.3199     1.1622 O.3     
  54 C54            1.5101    -3.6879     0.6769 C.3     
  55 C55            0.3868    -4.4479     1.3851 C.3     
  56 C56            1.2532    -3.6867    -0.8313 C.3     
  57 C57            2.8487    -4.3704     0.9657 C.3     
  58 C58            1.7685    -2.1446     2.4791 C.2     
  59 O59            1.9222    -3.1084     3.2030 O.2     
  60 H60           -0.3866     2.3991     1.2476 H       
  61 H61           -0.5486     0.5217     2.7645 H       
  62 H62            1.1695     3.3336     4.8208 H       
  63 H63           -0.0720     4.3441     3.1327 H       
  64 H64           -1.4139     3.1638     3.2899 H       
  65 H65           -0.9633     4.6085     5.7890 H       
  66 H66            1.2147    -0.0895     1.1482 H       
  67 H67            2.4196     0.8765     2.0411 H       
  68 H68            3.2387    -0.6572     4.5062 H       
  69 H69            2.1724    -2.8110     4.8964 H       
  70 H70            1.3416    -0.7663     7.0048 H       
  71 H71            1.5071    -2.5190     7.2672 H       
  72 H72            2.9409    -1.5377     6.8804 H       
  73 H73           -0.0245    -2.2663     3.8837 H       
  74 H74           -0.2246    -2.9445     5.5171 H       
  75 H75           -0.3901    -1.1918     5.2548 H       
  76 H76           -3.0129     2.7875     4.7251 H       
  77 H77           -5.9763     4.4397     4.7949 H       
  78 H78           -0.8365     3.3375     8.7769 H       
  79 H79           -1.7172     5.6036     8.0499 H       
  80 H80           -3.4341     5.0668     8.4569 H       
  81 H81           -8.4229     3.9911     4.2977 H       
  82 H82           -8.1107     2.1762     4.3990 H       
  83 H83           -7.3327     2.4439     6.7984 H       
  84 H84           -7.6449     4.2588     6.6972 H       
  85 H85           -3.7783     3.0486     9.5582 H       
  86 H86           -2.9661     1.5857     8.9511 H       
  87 H87           -2.0192     3.3080    11.2865 H       
  88 H88           -2.8199     1.7241    11.4226 H       
  89 H89           -1.2070     1.8451    10.6794 H       
  90 H90           -0.5092     3.9368     0.4860 H       
  91 H91            6.1566     4.1685     0.8040 H       
  92 H92            4.0621     3.2314     1.6202 H       
  93 H93            8.4645     5.9637    -0.8951 H       
  94 H94            7.5619     5.6896     0.6143 H       
  95 H95            7.6661     4.3991    -0.6071 H       
  96 H96           -4.0895     6.4363    -2.4840 H       
  97 H97           -1.4148     8.6594    -3.9805 H       
  98 H98           -3.2068     6.5471    -5.2626 H       
  99 H99           -2.5316     7.9737    -6.0855 H       
 100 H100          -1.4476     6.6932    -5.4910 H       
 101 H101          -3.4639     9.2490    -2.7147 H       
 102 H102          -3.7090     9.4662    -4.4643 H       
 103 H103          -4.3842     8.0397    -3.6414 H       
 104 H104          -0.5667    -3.9617     1.1793 H       
 105 H105           0.3571    -5.4748     1.0208 H       
 106 H106           0.5699    -4.4487     2.4596 H       
 107 H107           2.0535    -3.1453    -1.3358 H       
 108 H108           1.2235    -4.7136    -1.1956 H       
 109 H109           0.2996    -3.2005    -1.0371 H       
 110 H110           3.0317    -4.3712     2.0403 H       
 111 H111           2.8189    -5.3973     0.6015 H       
 112 H112           3.6489    -3.8290     0.4613 H       
@<TRIPOS>BOND
   1    1    2 1
   2    1    6 1
   3    1    5 1
   4    1   60 1
   5    2    3 1
   6    2   10 1
   7    2   61 1
   8    3    4 1
   9    3   13 am
  10    4    5 1
  11    4    7 1
  12    4   62 1
  13    5   63 1
  14    5   64 1
  15    6   32 1
  16    7    8 2
  17    7    9 am
  18    9   18 1
  19    9   65 1
  20   10   11 1
  21   10   66 1
  22   10   67 1
  23   11   12 1
  24   11   58 am
  25   12   13 1
  26   12   15 1
  27   12   68 1
  28   13   14 2
  29   15   16 1
  30   15   17 1
  31   15   69 1
  32   16   70 1
  33   16   71 1
  34   16   72 1
  35   17   73 1
  36   17   74 1
  37   17   75 1
  38   18   19 1
  39   18   24 1
  40   18   25 1
  41   19   20 am
  42   19   21 2
  43   20   22 am
  44   20   76 1
  45   22   23 1
  46   22   28 2
  47   22   29 2
  48   23   26 1
  49   23   27 1
  50   23   77 1
  51   24   25 1
  52   24   30 1
  53   24   78 1
  54   25   79 1
  55   25   80 1
  56   26   27 1
  57   26   81 1
  58   26   82 1
  59   27   83 1
  60   27   84 1
  61   30   31 1
  62   30   85 1
  63   30   86 1
  64   31   87 1
  65   31   88 1
  66   31   89 1
  67   32   33 ar
  68   32   34 ar
  69   33   37 ar
  70   33   43 ar
  71   34   35 ar
  72   34   90 1
  73   35   36 ar
  74   35   38 1
  75   36   37 ar
  76   37   40 ar
  77   38   47 2
  78   38   39 1
  79   39   49 1
  80   40   41 ar
  81   40   44 1
  82   41   42 ar
  83   41   45 1
  84   42   43 ar
  85   42   91 1
  86   43   92 1
  87   45   46 1
  88   46   93 1
  89   46   94 1
  90   46   95 1
  91   47   48 1
  92   48   49 2
  93   48   50 1
  94   49   96 1
  95   50   51 1
  96   50   52 1
  97   50   97 1
  98   51   98 1
  99   51   99 1
 100   51  100 1
 101   52  101 1
 102   52  102 1
 103   52  103 1
 104   53   54 1
 105   53   58 1
 106   54   55 1
 107   54   56 1
 108   54   57 1
 109   55  104 1
 110   55  105 1
 111   55  106 1
 112   56  107 1
 113   56  108 1
 114   56  109 1
 115   57  110 1
 116   57  111 1
 117   57  112 1
 118   58   59 2

#	End of record

