#	Name: ASD01901214
#	Creating user name:	WinNT
#	Creation time:	15. 06. 2019 19:53

#	Modifying user name:	WinNT
#	Modification time:	15. 06. 2019 19:53

#	Program:	/corina/corina34_cracker 3.40 0067  02.08.2006

@<TRIPOS>MOLECULE
ASD01901214
  29   31    0    0    0
SMALL
NO_CHARGES


@<TRIPOS>ATOM
   1 C1            -0.0167     1.3791     0.0096 C.ar    
   2 C2             0.0021    -0.0041     0.0020 C.ar    
   3 C3             1.2035    -0.6815    -0.0126 C.ar    
   4 C4             2.4053     0.0322    -0.0202 C.ar    
   5 C5             2.3807     1.4298    -0.0130 C.ar    
   6 C6             1.1705     2.0950     0.0021 C.ar    
   7 C7             3.6560    -0.6651    -0.0349 C.1     
   8 C8             4.6813    -1.2369    -0.0470 C.1     
   9 C9             5.9319    -1.9342    -0.0617 C.ar    
  10 C10            7.2077    -1.2145    -0.0700 C.ar    
  11 C11            8.4069    -1.9674    -0.0845 C.ar    
  12 N12            8.3544    -3.3032    -0.0908 N.ar    
  13 C13            7.2217    -3.9624    -0.0840 C.ar    
  14 C14            5.9876    -3.3285    -0.0630 C.ar    
  15 C15            7.2620     0.1824    -0.0644 C.ar    
  16 C16            8.4736     0.8090    -0.0729 C.ar    
  17 C17            9.6558     0.0740    -0.0871 C.ar    
  18 C18            9.6370    -1.2877    -0.0925 C.ar    
  19 F19            1.1435     3.4457     0.0096 F       
  20 H20           -0.9606     1.9038     0.0169 H       
  21 H21           -0.9267    -0.5552     0.0079 H       
  22 H22            1.2156    -1.7614    -0.0178 H       
  23 H23            3.3054     1.9878    -0.0188 H       
  24 H24            7.2500    -5.0420    -0.0898 H       
  25 H25            5.0773    -3.9096    -0.0523 H       
  26 H26            6.3505     0.7617    -0.0537 H       
  27 H27            8.5163     1.8882    -0.0689 H       
  28 H28           10.6034     0.5922    -0.0939 H       
  29 H29           10.5633    -1.8428    -0.1039 H       
@<TRIPOS>BOND
   1    1    2 ar
   2    1    6 ar
   3    1   20 1
   4    2    3 ar
   5    2   21 1
   6    3    4 ar
   7    3   22 1
   8    4    5 ar
   9    4    7 1
  10    5    6 ar
  11    5   23 1
  12    6   19 1
  13    7    8 3
  14    8    9 1
  15    9   10 ar
  16    9   14 ar
  17   10   11 ar
  18   10   15 ar
  19   11   12 ar
  20   11   18 ar
  21   12   13 ar
  22   13   14 ar
  23   13   24 1
  24   14   25 1
  25   15   16 ar
  26   15   26 1
  27   16   17 ar
  28   16   27 1
  29   17   18 ar
  30   17   28 1
  31   18   29 1

#	End of record

