#	Name: ASD02038792
#	Creating user name:	WinNT
#	Creation time:	15. 06. 2019 20:17

#	Modifying user name:	WinNT
#	Modification time:	15. 06. 2019 20:17

#	Program:	/corina/corina34_cracker 3.40 0067  02.08.2006

@<TRIPOS>MOLECULE
ASD02038792
  46   48    0    0    0
SMALL
NO_CHARGES


@<TRIPOS>ATOM
   1 C1            -1.2821    -0.8498     0.4640 C.2     
   2 C2            -0.0599    -0.0337     0.3010 C.2     
   3 N3             1.1373    -0.6350     0.1537 N.am    
   4 C4             1.2415    -2.0931     0.2505 C.3     
   5 C5             1.2139    -2.6916    -1.1322 C.ar    
   6 C6             2.3344     0.1695    -0.1033 C.3     
   7 O7            -0.1348     1.1796     0.2999 O.2     
   8 N8            -1.3386    -2.1938     0.4942 N.2     
   9 C9            -2.5942    -2.5264     0.6534 C.2     
  10 N10           -3.3115    -1.3896     0.7213 N.pl3   
  11 N11           -2.5055    -0.3904     0.6108 N.2     
  12 C12            2.3983    -3.0136    -1.7687 C.ar    
  13 C13            2.1236     1.0137    -1.3639 C.3     
  14 C14            3.3470     1.9083    -1.5801 C.3     
  15 O15            3.5466     2.7270    -0.4260 O.3     
  16 C16            3.7956     1.9927     0.7744 C.3     
  17 C17            2.5903     1.1014     1.0851 C.3     
  18 C18            0.0039    -2.9231    -1.7600 C.ar    
  19 C19           -0.0242    -3.4721    -3.0273 C.ar    
  20 C20            1.1631    -3.7912    -3.6702 C.ar    
  21 C21            2.3757    -3.5623    -3.0363 C.ar    
  22 C22           -4.7633    -1.3028     0.8972 C.3     
  23 O23            1.1382    -4.3317    -4.9169 O.3     
  24 C24            2.3987    -4.6350    -5.5178 C.3     
  25 F25            3.0849    -5.5581    -4.7215 F       
  26 F26            2.1900    -5.1801    -6.7892 F       
  27 F27            3.1552    -3.4636    -5.6311 F       
  28 H28            2.1771    -2.3586     0.7428 H       
  29 H29            0.4034    -2.4795     0.8305 H       
  30 H30            3.1923    -0.4881    -0.2440 H       
  31 H31           -2.9844    -3.5314     0.7182 H       
  32 H32            3.3420    -2.8355    -1.2746 H       
  33 H33            1.9957     0.3573    -2.2247 H       
  34 H34            1.2356     1.6340    -1.2426 H       
  35 H35            4.2277     1.2868    -1.7416 H       
  36 H36            3.1843     2.5422    -2.4517 H       
  37 H37            4.6823     1.3723     0.6436 H       
  38 H38            3.9562     2.6874     1.5988 H       
  39 H39            1.7117     1.7236     1.2559 H       
  40 H40            2.7962     0.5078     1.9758 H       
  41 H41           -0.9201    -2.6749    -1.2590 H       
  42 H42           -0.9695    -3.6531    -3.5171 H       
  43 H43            3.3013    -3.8098    -3.5346 H       
  44 H44           -4.9987    -1.2636     1.9607 H       
  45 H45           -5.1352    -0.4019     0.4093 H       
  46 H46           -5.2361    -2.1784     0.4524 H       
@<TRIPOS>BOND
   1    1    2 1
   2    1    8 1
   3    1   11 2
   4    2    3 am
   5    2    7 2
   6    3    4 1
   7    3    6 1
   8    4    5 1
   9    4   28 1
  10    4   29 1
  11    5   12 ar
  12    5   18 ar
  13    6   13 1
  14    6   17 1
  15    6   30 1
  16    8    9 2
  17    9   10 1
  18    9   31 1
  19   10   11 1
  20   10   22 1
  21   12   21 ar
  22   12   32 1
  23   13   14 1
  24   13   33 1
  25   13   34 1
  26   14   15 1
  27   14   35 1
  28   14   36 1
  29   15   16 1
  30   16   17 1
  31   16   37 1
  32   16   38 1
  33   17   39 1
  34   17   40 1
  35   18   19 ar
  36   18   41 1
  37   19   20 ar
  38   19   42 1
  39   20   21 ar
  40   20   23 1
  41   21   43 1
  42   22   44 1
  43   22   45 1
  44   22   46 1
  45   23   24 1
  46   24   25 1
  47   24   26 1
  48   24   27 1

#	End of record

