#	Name: ASD01120180
#	Creating user name:	WinNT
#	Creation time:	15. 06. 2019 18:59

#	Modifying user name:	WinNT
#	Modification time:	15. 06. 2019 18:59

#	Program:	/corina/corina34_cracker 3.40 0067  02.08.2006

@<TRIPOS>MOLECULE
ASD01120180
  31   32    0    0    0
SMALL
NO_CHARGES


@<TRIPOS>ATOM
   1 C1            -0.0168     1.3861     0.0097 C.ar    
   2 C2             0.0021    -0.0041     0.0020 C.ar    
   3 C3             1.1973    -0.6901    -0.0131 C.ar    
   4 C4             2.3989     0.0124    -0.0207 C.ar    
   5 C5             2.3778     1.4210    -0.0130 C.ar    
   6 C6             1.1489     2.0969     0.0023 C.ar    
   7 N7             3.7167    -0.3792    -0.0354 N.pl3   
   8 C8             4.5159     0.7490    -0.0370 C.2     
   9 C9             3.7245     1.8548    -0.0235 C.2     
  10 C10            5.9840     0.7526    -0.0502 C.2     
  11 Cl11           1.1102     3.8324     0.0115 Cl      
  12 Cl12          -1.4943    -0.8842     0.0121 Cl      
  13 C13            4.1972     3.2858    -0.0203 C.3     
  14 C14            4.3440     3.7776    -1.4617 C.3     
  15 O15            6.6611    -0.4136    -0.0627 O.3     
  16 O16            6.5894     1.8070    -0.0500 O.2     
  17 C17            4.8238     5.2304    -1.4585 C.3     
  18 C18            4.9684     5.7148    -2.8782 C.2     
  19 O19            4.7137     4.9741    -3.7981 O.2     
  20 O20            5.3800     6.9692    -3.1207 O.3     
  21 H21           -0.9620     1.9084     0.0170 H       
  22 H22            1.2015    -1.7701    -0.0185 H       
  23 H23            4.0335    -1.2960    -0.0430 H       
  24 H24            3.4708     3.9072     0.5034 H       
  25 H25            5.1609     3.3490     0.4850 H       
  26 H26            5.0704     3.1562    -1.9854 H       
  27 H27            3.3803     3.7144    -1.9671 H       
  28 H28            7.6266    -0.3606    -0.0711 H       
  29 H29            4.0974     5.8518    -0.9347 H       
  30 H30            5.7875     5.2936    -0.9531 H       
  31 H31            5.4576     7.2344    -4.0473 H       
@<TRIPOS>BOND
   1    1    2 ar
   2    1    6 ar
   3    1   21 1
   4    2    3 ar
   5    2   12 1
   6    3    4 ar
   7    3   22 1
   8    4    5 ar
   9    4    7 1
  10    5    6 ar
  11    5    9 1
  12    6   11 1
  13    7    8 1
  14    7   23 1
  15    8    9 2
  16    8   10 1
  17    9   13 1
  18   10   15 1
  19   10   16 2
  20   13   14 1
  21   13   24 1
  22   13   25 1
  23   14   17 1
  24   14   26 1
  25   14   27 1
  26   15   28 1
  27   17   18 1
  28   17   29 1
  29   17   30 1
  30   18   19 2
  31   18   20 1
  32   20   31 1

#	End of record

