#	Name: ASD01884715
#	Creating user name:	WinNT
#	Creation time:	15. 06. 2019 19:48

#	Modifying user name:	WinNT
#	Modification time:	15. 06. 2019 19:48

#	Program:	/corina/corina34_cracker 3.40 0067  02.08.2006

@<TRIPOS>MOLECULE
ASD01884715
  42   44    0    0    0
SMALL
NO_CHARGES


@<TRIPOS>ATOM
   1 C1            -0.1583     2.1462    -0.4496 C.2     
   2 C2            -0.3511     0.7530    -0.3990 C.2     
   3 C3             1.1041     2.6504    -0.3616 C.2     
   4 C4             2.1918     1.7611    -0.2213 C.2     
   5 C5             1.9645     0.4163    -0.1761 C.2     
   6 N6             0.7028    -0.0734    -0.2643 N.am    
   7 C7             3.5762     2.2865    -0.1239 C.ar    
   8 H8             1.2709     3.7168    -0.3990 H       
   9 Cl9           -1.5165     3.2122    -0.6299 Cl      
  10 O10           -1.4786     0.2922    -0.4771 O.2     
  11 C11            0.4842    -1.5210    -0.2128 C.3     
  12 C12            0.2836    -1.9482     1.2184 C.ar    
  13 C13            4.5025     2.0047    -1.1263 C.ar    
  14 C14            5.7905     2.4940    -1.0340 C.ar    
  15 C15            6.1655     3.2636     0.0506 C.ar    
  16 C16            5.2483     3.5496     1.0547 C.ar    
  17 C17            3.9514     3.0673     0.9664 C.ar    
  18 N18            5.6320     4.3286     2.1521 N.am    
  19 C19            5.1311     4.0635     3.3749 C.2     
  20 C20            5.6228     4.8329     4.5737 C.3     
  21 C21           -0.9876    -1.9700     1.7611 C.ar    
  22 C22           -1.1723    -2.3617     3.0737 C.ar    
  23 C23           -0.0846    -2.7320     3.8444 C.ar    
  24 C24            1.1874    -2.7099     3.3006 C.ar    
  25 C25            1.3702    -2.3235     1.9862 C.ar    
  26 Cl26          -0.3157    -3.2235     5.4932 Cl      
  27 O27            4.2845     3.2056     3.5104 O.2     
  28 H28            2.7965    -0.2639    -0.0688 H       
  29 H29           -0.4010    -1.7758    -0.7956 H       
  30 H30            1.3520    -2.0345    -0.6270 H       
  31 H31            4.2131     1.4032    -1.9753 H       
  32 H32            6.5069     2.2741    -1.8116 H       
  33 H33            7.1741     3.6436     0.1183 H       
  34 H34            3.2370     3.2886     1.7454 H       
  35 H35            6.2586     5.0594     2.0327 H       
  36 H36            5.0059     5.7206     4.7137 H       
  37 H37            5.5594     4.2028     5.4608 H       
  38 H38            6.6587     5.1319     4.4136 H       
  39 H39           -1.8366    -1.6806     1.1596 H       
  40 H40           -2.1654    -2.3783     3.4977 H       
  41 H41            2.0368    -2.9989     3.9017 H       
  42 H42            2.3630    -2.3062     1.5616 H       
@<TRIPOS>BOND
   1    1    2 1
   2    1    3 2
   3    1    9 1
   4    2   10 2
   5    2    6 am
   6    3    4 1
   7    3    8 1
   8    4    5 2
   9    4    7 1
  10    5    6 1
  11    5   28 1
  12    6   11 1
  13    7   13 ar
  14    7   17 ar
  15   11   12 1
  16   11   29 1
  17   11   30 1
  18   12   21 ar
  19   12   25 ar
  20   13   14 ar
  21   13   31 1
  22   14   15 ar
  23   14   32 1
  24   15   16 ar
  25   15   33 1
  26   16   17 ar
  27   16   18 1
  28   17   34 1
  29   18   19 am
  30   18   35 1
  31   19   20 1
  32   19   27 2
  33   20   36 1
  34   20   37 1
  35   20   38 1
  36   21   22 ar
  37   21   39 1
  38   22   23 ar
  39   22   40 1
  40   23   24 ar
  41   23   26 1
  42   24   25 ar
  43   24   41 1
  44   25   42 1

#	End of record

