#	Name: ASD01885845
#	Creating user name:	WinNT
#	Creation time:	15. 06. 2019 19:50

#	Modifying user name:	WinNT
#	Modification time:	15. 06. 2019 19:50

#	Program:	/corina/corina34_cracker 3.40 0067  02.08.2006

@<TRIPOS>MOLECULE
ASD01885845
  46   49    0    0    0
SMALL
NO_CHARGES


@<TRIPOS>ATOM
   1 C1            -0.0172     1.4139     0.0098 C.ar    
   2 C2             0.0021    -0.0041     0.0020 C.ar    
   3 C3             1.2507    -0.6757    -0.0139 C.ar    
   4 C4             2.4040     0.0969    -0.0212 C.ar    
   5 C5             2.2989     1.4924    -0.0127 C.ar    
   6 N6             1.1269     2.0986     0.0026 N.ar    
   7 C7            -2.4109     1.3575     0.0438 C.ar    
   8 C8            -2.3870    -0.0354     0.0264 C.ar    
   9 C9            -1.2052    -0.7141     0.0106 C.ar    
  10 C10            1.3222    -2.1547    -0.0221 C.ar    
  11 C11            3.5356     2.3104    -0.0206 C.2     
  12 N12            3.4539     3.6556    -0.0126 N.am    
  13 O13            4.6227     1.7679    -0.0343 O.2     
  14 C14           -3.7354     2.0762     0.0615 C.3     
  15 C15            2.1216    -2.8116    -0.9580 C.ar    
  16 C16            2.1848    -4.1893    -0.9615 C.ar    
  17 C17            1.4559    -4.9211    -0.0373 C.ar    
  18 C18            0.6604    -4.2732     0.8945 C.ar    
  19 C19            0.5950    -2.8957     0.9099 C.ar    
  20 F20            1.5164    -6.2707    -0.0487 F       
  21 C21           -4.1674     2.2983     1.4881 C.ar    
  22 C22           -3.8022     3.4495     2.1678 C.ar    
  23 N23           -4.1985     3.6126     3.4195 N.ar    
  24 C24           -4.9344     2.6925     4.0217 C.ar    
  25 N25           -5.3001     1.5820     3.4020 N.ar    
  26 C26           -4.9434     1.3583     2.1477 C.ar    
  27 O27           -5.3227     2.8921     5.3040 O.3     
  28 C28           -6.1160     1.8686     5.9084 C.3     
  29 C29           -1.2577     2.0795     0.0311 C.ar    
  30 H30            3.3751    -0.3755    -0.0330 H       
  31 H31           -3.3170    -0.5845     0.0259 H       
  32 H32           -1.1997    -1.7941     0.0044 H       
  33 H33            2.5860     4.0887    -0.0017 H       
  34 H34            4.2629     4.1907    -0.0178 H       
  35 H35           -3.6337     3.0380    -0.4412 H       
  36 H36           -4.4827     1.4737    -0.4548 H       
  37 H37            2.6896    -2.2422    -1.6788 H       
  38 H38            2.8030    -4.6987    -1.6859 H       
  39 H39            0.0943    -4.8478     1.6126 H       
  40 H40           -0.0217    -2.3916     1.6392 H       
  41 H41           -3.2014     4.2040     1.6819 H       
  42 H42           -5.2491     0.4523     1.6457 H       
  43 H43           -7.0371     1.7397     5.3401 H       
  44 H44           -5.5582     0.9321     5.9136 H       
  45 H45           -6.3576     2.1533     6.9324 H       
  46 H46           -1.2936     3.1588     0.0449 H       
@<TRIPOS>BOND
   1    1    2 ar
   2    1    6 ar
   3    1   29 ar
   4    2    3 ar
   5    2    9 ar
   6    3    4 ar
   7    3   10 1
   8    4    5 ar
   9    4   30 1
  10    5    6 ar
  11    5   11 1
  12    7   14 1
  13    7    8 ar
  14    7   29 ar
  15    8    9 ar
  16    8   31 1
  17    9   32 1
  18   10   15 ar
  19   10   19 ar
  20   11   12 am
  21   11   13 2
  22   12   33 1
  23   12   34 1
  24   14   21 1
  25   14   35 1
  26   14   36 1
  27   15   16 ar
  28   15   37 1
  29   16   17 ar
  30   16   38 1
  31   17   18 ar
  32   17   20 1
  33   18   19 ar
  34   18   39 1
  35   19   40 1
  36   21   22 ar
  37   21   26 ar
  38   22   23 ar
  39   22   41 1
  40   23   24 ar
  41   24   27 1
  42   24   25 ar
  43   25   26 ar
  44   26   42 1
  45   27   28 1
  46   28   43 1
  47   28   44 1
  48   28   45 1
  49   29   46 1

#	End of record

