#	Name: ASD05430107
#	Creating user name:	WinNT
#	Creation time:	15. 06. 2019 20:59

#	Modifying user name:	WinNT
#	Modification time:	15. 06. 2019 20:59

#	Program:	/corina/corina34_cracker 3.40 0067  02.08.2006

@<TRIPOS>MOLECULE
ASD05430107
  69   75    0    0    0
SMALL
NO_CHARGES


@<TRIPOS>ATOM
   1 F1             7.5843     6.9722    -4.0073 F       
   2 C2             0.1926     1.1486    -1.0772 C.ar    
   3 C3             0.0190    -0.0153    -0.3189 C.ar    
   4 C4             1.0288    -0.4670     0.5174 C.ar    
   5 C5             2.2174     0.2235     0.6139 C.ar    
   6 C6             2.4025     1.3911    -0.1359 C.ar    
   7 C7             1.3841     1.8446    -0.9728 C.ar    
   8 C8             4.8916    -0.0276    -0.1197 C.3     
   9 C9             4.8375     1.4731     0.0358 C.2     
  10 C10            3.6675     2.1373    -0.0405 C.2     
  11 C11            6.3131    -0.4892    -0.4539 C.3     
  12 C12            7.0510     0.5592    -1.2965 C.3     
  13 N13            7.1907     1.7877    -0.5148 N.pl3   
  14 C14            6.1005     2.1881     0.2736 C.2     
  15 C15            8.1815     3.7809    -1.4766 C.ar    
  16 C16            9.1977     4.1953    -2.3174 C.ar    
  17 C17            8.9983     5.2665    -3.1675 C.ar    
  18 C18            7.7802     5.9247    -3.1770 C.ar    
  19 C19            6.7632     5.5087    -2.3345 C.ar    
  20 C20            6.9649     4.4373    -1.4853 C.ar    
  21 N21           -1.1847    -0.7293    -0.4053 N.pl3   
  22 C22           -1.3194    -2.0763    -0.6212 C.2     
  23 C23           -2.6402    -2.3396    -0.6314 C.2     
  24 N24           -3.2981    -1.1887    -0.4277 N.2     
  25 C25           -2.4371    -0.2179    -0.2849 C.2     
  26 C26           -3.2700    -3.6933    -0.8362 C.3     
  27 C27            1.2751     3.0559    -1.8783 C.3     
  28 C28           -0.2460     3.1125    -2.1548 C.3     
  29 O29           -0.6535     1.7472    -1.9612 O.3     
  30 C30            8.3982     2.6088    -0.5545 C.3     
  31 C31            8.6982     3.1170     0.8605 C.3     
  32 N32            7.4782     3.6735     1.4499 N.pl3   
  33 N33            6.2267     3.1096     1.1725 N.2     
  34 C34            7.0856    -0.6805     0.8656 C.3     
  35 S35            7.6492    -2.4228     0.8562 S.o2    
  36 C36            7.4924    -2.6430    -0.9619 C.3     
  37 C37            6.2307    -1.7935    -1.2583 C.3     
  38 O38            9.0195    -2.4829     1.2275 O.2     
  39 O39            6.6922    -3.2373     1.5195 O.2     
  40 H40            0.8825    -1.3662     1.0975 H       
  41 H41            3.0017    -0.1338     1.2648 H       
  42 H42            4.5717    -0.4963     0.8109 H       
  43 H43            4.2185    -0.3295    -0.9223 H       
  44 H44            3.6580     3.2173    -0.0318 H       
  45 H45            8.0385     0.1829    -1.5639 H       
  46 H46            6.4808     0.7662    -2.2021 H       
  47 H47           10.1479     3.6820    -2.3095 H       
  48 H48            9.7925     5.5903    -3.8239 H       
  49 H49            5.8127     6.0214    -2.3411 H       
  50 H50            6.1718     4.1127    -0.8280 H       
  51 H51           -0.5199    -2.7894    -0.7577 H       
  52 H52           -2.6801     0.8195    -0.1085 H       
  53 H53           -3.3966    -4.1847     0.1285 H       
  54 H54           -4.2426    -3.5731    -1.3132 H       
  55 H55           -2.6261    -4.3011    -1.4718 H       
  56 H56            1.6117     3.9570    -1.3657 H       
  57 H57            1.8335     2.9033    -2.8019 H       
  58 H58           -0.7442     3.7693    -1.4417 H       
  59 H59           -0.4411     3.4326    -3.1783 H       
  60 H60            9.2355     2.0099    -0.9126 H       
  61 H61            9.0542     2.2904     1.4753 H       
  62 H62            9.4644     3.8908     0.8136 H       
  63 H63            7.5378     4.4416     2.0393 H       
  64 H64            7.9422    -0.0074     0.9019 H       
  65 H65            6.4283    -0.5015     1.7165 H       
  66 H66            8.3640    -2.2453    -1.4818 H       
  67 H67            7.3293    -3.6899    -1.2176 H       
  68 H68            5.3389    -2.3481    -0.9664 H       
  69 H69            6.1849    -1.5648    -2.3231 H       
@<TRIPOS>BOND
   1    1   18 1
   2    2    3 ar
   3    2    7 ar
   4    2   29 1
   5    3    4 ar
   6    3   21 1
   7    4    5 ar
   8    4   40 1
   9    5    6 ar
  10    5   41 1
  11    6    7 ar
  12    6   10 1
  13    7   27 1
  14    8    9 1
  15    8   11 1
  16    8   42 1
  17    8   43 1
  18    9   10 2
  19    9   14 1
  20   10   44 1
  21   11   12 1
  22   11   34 1
  23   11   37 1
  24   12   13 1
  25   12   45 1
  26   12   46 1
  27   13   14 1
  28   13   30 1
  29   14   33 2
  30   15   16 ar
  31   15   20 ar
  32   15   30 1
  33   16   17 ar
  34   16   47 1
  35   17   18 ar
  36   17   48 1
  37   18   19 ar
  38   19   20 ar
  39   19   49 1
  40   20   50 1
  41   21   22 1
  42   21   25 1
  43   22   23 2
  44   22   51 1
  45   23   24 1
  46   23   26 1
  47   24   25 2
  48   25   52 1
  49   26   53 1
  50   26   54 1
  51   26   55 1
  52   27   28 1
  53   27   56 1
  54   27   57 1
  55   28   29 1
  56   28   58 1
  57   28   59 1
  58   30   31 1
  59   30   60 1
  60   31   32 1
  61   31   61 1
  62   31   62 1
  63   32   33 1
  64   32   63 1
  65   34   35 1
  66   34   64 1
  67   34   65 1
  68   35   36 1
  69   35   38 2
  70   35   39 2
  71   36   37 1
  72   36   66 1
  73   36   67 1
  74   37   68 1
  75   37   69 1

#	End of record

