#	Name: ASD01870040
#	Creating user name:	WinNT
#	Creation time:	15. 06. 2019 19:38

#	Modifying user name:	WinNT
#	Modification time:	15. 06. 2019 19:38

#	Program:	/corina/corina34_cracker 3.40 0067  02.08.2006

@<TRIPOS>MOLECULE
ASD01870040
  43   46    0    0    0
SMALL
NO_CHARGES


@<TRIPOS>ATOM
   1 C1             0.0117     1.2649    -0.3707 C.ar    
   2 C2            -0.0277     0.1140     0.3927 C.ar    
   3 N3             1.0646    -0.3885     0.9235 N.ar    
   4 C4             2.2672     0.1761     0.7591 C.ar    
   5 C5             2.3942     1.3369     0.0040 C.ar    
   6 C6             1.2287     1.8990    -0.5792 C.ar    
   7 S7             3.8350    -0.3262     1.3751 S.3     
   8 C8             4.6626     1.0233     0.6184 C.2     
   9 C9             3.7755     1.8203    -0.0737 C.2     
  10 C10            6.0378     1.3784     0.6251 C.2     
  11 N11            6.4263     2.4813    -0.0452 N.am    
  12 C12            5.5079     3.2305    -0.7108 C.2     
  13 N13            4.2488     2.9177    -0.7251 N.2     
  14 N14            1.3043     3.0561    -1.3413 N.3     
  15 C15            7.7758     2.8557    -0.0555 C.ar    
  16 O16            6.8522     0.6979     1.2266 O.2     
  17 C17            0.8284     2.8167    -2.7104 C.3     
  18 C18            0.5587     4.1526    -0.7091 C.3     
  19 C19            8.6216     2.3821    -1.0495 C.ar    
  20 C20            9.9520     2.7535    -1.0572 C.ar    
  21 C21           10.4418     3.5957    -0.0761 C.ar    
  22 C22            9.6020     4.0687     0.9157 C.ar    
  23 C23            8.2696     3.7060     0.9254 C.ar    
  24 C24           10.1401     4.9860     1.9835 C.3     
  25 C25            9.9990     6.4392     1.5260 C.3     
  26 H26           -0.8935     1.6640    -0.8041 H       
  27 H27           -0.9732    -0.3816     0.5565 H       
  28 H28            5.8357     4.1115    -1.2426 H       
  29 H29           -0.2093     2.4844    -2.6815 H       
  30 H30            0.8985     3.7397    -3.2860 H       
  31 H31            1.4430     2.0484    -3.1795 H       
  32 H32            0.9772     4.3555     0.2767 H       
  33 H33            0.6345     5.0473    -1.3271 H       
  34 H34           -0.4888     3.8687    -0.6077 H       
  35 H35            8.2397     1.7237    -1.8157 H       
  36 H36           10.6104     2.3855    -1.8302 H       
  37 H37           11.4825     3.8844    -0.0840 H       
  38 H38            7.6142     4.0761     1.6999 H       
  39 H39            9.5780     4.8392     2.9057 H       
  40 H40           11.1920     4.7611     2.1594 H       
  41 H41           10.5611     6.5860     0.6038 H       
  42 H42            8.9470     6.6642     1.3501 H       
  43 H43           10.3882     7.1027     2.2983 H       
@<TRIPOS>BOND
   1    1    2 ar
   2    1    6 ar
   3    1   26 1
   4    2    3 ar
   5    2   27 1
   6    3    4 ar
   7    4    5 ar
   8    4    7 1
   9    5    6 ar
  10    5    9 1
  11    6   14 1
  12    7    8 1
  13    8    9 2
  14    8   10 1
  15    9   13 1
  16   10   11 am
  17   10   16 2
  18   11   12 1
  19   11   15 1
  20   12   13 2
  21   12   28 1
  22   14   17 1
  23   14   18 1
  24   15   19 ar
  25   15   23 ar
  26   17   29 1
  27   17   30 1
  28   17   31 1
  29   18   32 1
  30   18   33 1
  31   18   34 1
  32   19   20 ar
  33   19   35 1
  34   20   21 ar
  35   20   36 1
  36   21   22 ar
  37   21   37 1
  38   22   23 ar
  39   22   24 1
  40   23   38 1
  41   24   25 1
  42   24   39 1
  43   24   40 1
  44   25   41 1
  45   25   42 1
  46   25   43 1

#	End of record

