#	Name: ASD01040044
#	Creating user name:	WinNT
#	Creation time:	15. 06. 2019 18:58

#	Modifying user name:	WinNT
#	Modification time:	15. 06. 2019 18:58

#	Program:	/corina/corina34_cracker 3.40 0067  02.08.2006

@<TRIPOS>MOLECULE
ASD01040044
  51   54    0    0    0
SMALL
NO_CHARGES


@<TRIPOS>ATOM
   1 C1            -0.0184     1.5074     0.0103 C.3     
   2 C2             1.4267     2.0215    -0.0007 C.3     
   3 C3             1.4048     3.5441     0.1573 C.3     
   4 C4             2.8356     4.0831     0.1733 C.3     
   5 C5             3.5933     3.4650     1.3509 C.3     
   6 C6             3.6293     1.9455     1.1847 C.3     
   7 C7             2.2016     1.3930     1.1584 C.3     
   8 C8             2.2658    -0.1264     0.9781 C.3     
   9 C9             0.8517    -0.7113     1.0350 C.3     
  10 C10            0.0021    -0.0041     0.0020 C.2     
  11 C11           -0.7110    -0.6972    -0.8942 C.2     
  12 C12           -0.6756    -2.1794    -0.8834 C.ar    
  13 C13            0.5131    -2.8519    -1.1644 C.ar    
  14 C14            0.5429    -4.2304    -1.1531 C.ar    
  15 C15           -0.6092    -4.9488    -0.8628 C.ar    
  16 O16           -0.5766    -6.3070    -0.8524 O.3     
  17 C17           -1.7945    -4.2821    -0.5826 C.ar    
  18 C18           -1.8295    -2.9037    -0.5867 C.ar    
  19 C19           -1.5362     0.0173    -1.8976 C.ar    
  20 C20           -1.2249    -0.0775    -3.2534 C.ar    
  21 C21           -1.9945     0.5878    -4.1842 C.ar    
  22 C22           -3.0783     1.3519    -3.7725 C.ar    
  23 O23           -3.8347     2.0063    -4.6920 O.3     
  24 C24           -3.3909     1.4483    -2.4231 C.ar    
  25 C25           -2.6286     0.7808    -1.4879 C.ar    
  26 H26           -0.5251     1.8610     0.9083 H       
  27 H27           -0.5421     1.8706    -0.8740 H       
  28 H28            1.9018     1.7545    -0.9447 H       
  29 H29            0.8599     3.9872    -0.6762 H       
  30 H30            0.9090     3.8043     1.0925 H       
  31 H31            3.3345     3.8194    -0.7593 H       
  32 H32            2.8151     5.1674     0.2824 H       
  33 H33            4.6116     3.8531     1.3726 H       
  34 H34            3.0868     3.7174     2.2825 H       
  35 H35            4.1321     1.6949     0.2506 H       
  36 H36            4.1730     1.5024     2.0191 H       
  37 H37            1.7025     1.6269     2.0988 H       
  38 H38            2.7160    -0.3586     0.0129 H       
  39 H39            2.8701    -0.5610     1.7743 H       
  40 H40            0.8864    -1.7781     0.8140 H       
  41 H41            0.4295    -0.5555     2.0278 H       
  42 H42            1.4095    -2.2936    -1.3909 H       
  43 H43            1.4633    -4.7518    -1.3706 H       
  44 H44           -0.3582    -6.6887     0.0088 H       
  45 H45           -2.6891    -4.8438    -0.3575 H       
  46 H46           -2.7506    -2.3856    -0.3643 H       
  47 H47           -0.3816    -0.6711    -3.5743 H       
  48 H48           -1.7539     0.5148    -5.2345 H       
  49 H49           -4.5789     1.4890    -5.0291 H       
  50 H50           -4.2345     2.0435    -2.1060 H       
  51 H51           -2.8722     0.8562    -0.4384 H       
@<TRIPOS>BOND
   1    1   10 1
   2    1    2 1
   3    1   26 1
   4    1   27 1
   5    2    7 1
   6    2   28 1
   7    2    3 1
   8    3    4 1
   9    3   29 1
  10    3   30 1
  11    4    5 1
  12    4   31 1
  13    4   32 1
  14    5    6 1
  15    5   33 1
  16    5   34 1
  17    6   35 1
  18    6   36 1
  19    6    7 1
  20    7    8 1
  21    7   37 1
  22    8   38 1
  23    8   39 1
  24    8    9 1
  25    9   40 1
  26    9   41 1
  27    9   10 1
  28   10   11 2
  29   11   12 1
  30   11   19 1
  31   12   18 ar
  32   12   13 ar
  33   13   14 ar
  34   13   42 1
  35   14   15 ar
  36   14   43 1
  37   15   16 1
  38   15   17 ar
  39   16   44 1
  40   17   45 1
  41   17   18 ar
  42   18   46 1
  43   19   20 ar
  44   19   25 ar
  45   20   47 1
  46   20   21 ar
  47   21   48 1
  48   21   22 ar
  49   22   23 1
  50   22   24 ar
  51   23   49 1
  52   24   25 ar
  53   24   50 1
  54   25   51 1

#	End of record

