#	Name: ASD03731449
#	Creating user name:	WinNT
#	Creation time:	15. 06. 2019 20:45

#	Modifying user name:	WinNT
#	Modification time:	15. 06. 2019 20:45

#	Program:	/corina/corina34_cracker 3.40 0067  02.08.2006

@<TRIPOS>MOLECULE
ASD03731449
  58   64    0    0    0
SMALL
NO_CHARGES


@<TRIPOS>ATOM
   1 O1            -0.0174     1.4354     0.0099 O.3     
   2 C2             0.0021    -0.0041     0.0020 C.3     
   3 O3             1.2438    -0.3266    -0.6516 O.3     
   4 C4             2.0691     0.7335    -0.4081 C.ar    
   5 C5             1.2912     1.8185    -0.0005 C.ar    
   6 C6             3.4405     0.8644    -0.5021 C.ar    
   7 C7             4.0472     2.0838    -0.1884 C.ar    
   8 C8             3.2633     3.1655     0.2189 C.ar    
   9 C9             1.8951     3.0290     0.3108 C.ar    
  10 C10            5.5130     2.2278    -0.2870 C.2     
  11 O11            6.1940     1.2850    -0.6414 O.2     
  12 N12            6.0963     3.4045     0.0159 N.am    
  13 C13            7.5510     3.5474    -0.0820 C.3     
  14 C14            7.9514     4.9701     0.3139 C.3     
  15 C15            9.4707     5.1194     0.2117 C.3     
  16 O16            6.4183    10.1825     4.3031 O.3     
  17 C17            6.4101    11.4681     4.9512 C.3     
  18 O18            7.7647    11.6276     5.4123 O.3     
  19 C19            8.5311    10.8860     4.5594 C.ar    
  20 C20            7.7028     9.9969     3.8784 C.ar    
  21 C21            9.8906    10.8986     4.3041 C.ar    
  22 C22           10.4408    10.0259     3.3702 C.ar    
  23 C23            9.6044     9.1366     2.7022 C.ar    
  24 C24            8.2476     9.1258     2.9501 C.ar    
  25 O25           11.7349     9.8883     2.9619 O.3     
  26 C26           10.4843     8.3197     1.7944 C.3     
  27 C27           11.8971     8.6089     2.3197 C.3     
  28 N28            9.8540     6.4816     0.5908 N.am    
  29 C29           10.1550     6.8557     1.8503 C.2     
  30 C30           10.3332     8.7066     0.3531 C.ar    
  31 C31           10.4928     9.8876    -0.3367 C.ar    
  32 C32           10.2748     9.9274    -1.7024 C.ar    
  33 C33            9.8955     8.7786    -2.3726 C.ar    
  34 C34            9.7333     7.5934    -1.6859 C.ar    
  35 C35            9.9510     7.5440    -0.3112 C.ar    
  36 O36           10.1594     6.1484     2.8356 O.2     
  37 H37           -0.0068    -0.3927     1.0203 H       
  38 H38           -0.8422    -0.3953    -0.5656 H       
  39 H39            4.0435     0.0256    -0.8171 H       
  40 H40            3.7294     4.1089     0.4620 H       
  41 H41            1.2906     3.8668     0.6257 H       
  42 H42            5.5530     4.1566     0.2986 H       
  43 H43            8.0320     2.8349     0.5881 H       
  44 H44            7.8671     3.3529    -1.1068 H       
  45 H45            7.4704     5.6827    -0.3562 H       
  46 H46            7.6353     5.1646     1.3388 H       
  47 H47            9.9517     4.4069     0.8818 H       
  48 H48            9.7868     4.9249    -0.8131 H       
  49 H49            6.1524    12.2535     4.2407 H       
  50 H50            5.7167    11.4686     5.7923 H       
  51 H51           10.5294    11.5904     4.8331 H       
  52 H52            7.6085     8.4358     2.4190 H       
  53 H53           12.6096     8.6760     1.4976 H       
  54 H54           12.2052     7.8507     3.0396 H       
  55 H55           10.7889    10.7835     0.1887 H       
  56 H56           10.4008    10.8533    -2.2439 H       
  57 H57            9.7251     8.8097    -3.4386 H       
  58 H58            9.4363     6.7006    -2.2161 H       
@<TRIPOS>BOND
   1    1    2 1
   2    1    5 1
   3    2    3 1
   4    2   37 1
   5    2   38 1
   6    3    4 1
   7    4    5 ar
   8    4    6 ar
   9    5    9 ar
  10    6    7 ar
  11    6   39 1
  12    7    8 ar
  13    7   10 1
  14    8    9 ar
  15    8   40 1
  16    9   41 1
  17   10   11 2
  18   10   12 am
  19   12   13 1
  20   12   42 1
  21   13   14 1
  22   13   43 1
  23   13   44 1
  24   14   15 1
  25   14   45 1
  26   14   46 1
  27   15   28 1
  28   15   47 1
  29   15   48 1
  30   16   17 1
  31   16   20 1
  32   17   18 1
  33   17   49 1
  34   17   50 1
  35   18   19 1
  36   19   20 ar
  37   19   21 ar
  38   20   24 ar
  39   21   22 ar
  40   21   51 1
  41   22   23 ar
  42   22   25 1
  43   23   24 ar
  44   23   26 1
  45   24   52 1
  46   25   27 1
  47   26   27 1
  48   26   29 1
  49   26   30 1
  50   27   53 1
  51   27   54 1
  52   28   29 am
  53   28   35 1
  54   29   36 2
  55   30   31 ar
  56   30   35 ar
  57   31   32 ar
  58   31   55 1
  59   32   33 ar
  60   32   56 1
  61   33   34 ar
  62   33   57 1
  63   34   35 ar
  64   34   58 1

#	End of record

