#	Name: ASD00310219
#	Creating user name:	WinNT
#	Creation time:	15. 06. 2019 18:34

#	Modifying user name:	WinNT
#	Modification time:	15. 06. 2019 18:34

#	Program:	/corina/corina34_cracker 3.40 0067  02.08.2006

@<TRIPOS>MOLECULE
ASD00310219
  38   41    0    0    0
SMALL
NO_CHARGES


@<TRIPOS>ATOM
   1 N1            -0.1080     3.0242     1.0909 N.pl3   
   2 C2            -0.3066     1.6927     1.2372 C.2     
   3 C3             0.8867     1.0360     1.1552 C.2     
   4 C4             1.9174     2.0690     0.9371 C.ar    
   5 C5             3.2983     2.0339     0.7755 C.ar    
   6 C6             3.9966     3.2191     0.5831 C.ar    
   7 C7             3.3111     4.4385     0.5527 C.ar    
   8 C8             1.9446     4.4754     0.7124 C.ar    
   9 C9             1.2324     3.2947     0.9060 C.ar    
  10 C10            1.1023    -0.4113     1.2627 C.2     
  11 O11            2.2259    -0.8671     1.1710 O.2     
  12 O12            0.0545    -1.2360     1.4632 O.3     
  13 C13            5.4698     3.1921     0.4103 C.ar    
  14 C14            6.0602     3.8671    -0.6567 C.ar    
  15 C15            7.4300     3.8402    -0.8148 C.ar    
  16 C16            8.2206     3.1413     0.0872 C.ar    
  17 C17            7.6355     2.4676     1.1507 C.ar    
  18 C18            6.2668     2.4964     1.3178 C.ar    
  19 O19            9.5700     3.1161    -0.0714 O.3     
  20 O20           12.2218     3.3267     0.8282 O.3     
  21 C21           11.7259     2.0159     0.5269 C.3     
  22 C22           10.3330     2.4885     0.9610 C.3     
  23 C23           11.1788     3.4511     1.8037 C.3     
  24 Cl24           4.1907     5.9157     0.3123 Cl      
  25 H25           -0.8099     3.6934     1.1094 H       
  26 H26           -1.2654     1.2214     1.3953 H       
  27 H27            3.8245     1.0911     0.7999 H       
  28 H28            1.4242     5.4213     0.6878 H       
  29 H29            0.2461    -2.1817     1.5274 H       
  30 H30            5.4456     4.4104    -1.3592 H       
  31 H31            7.8881     4.3630    -1.6414 H       
  32 H32            8.2531     1.9241     1.8504 H       
  33 H33            5.8125     1.9761     2.1480 H       
  34 H34           11.7867     1.7630    -0.5316 H       
  35 H35           12.1390     1.2386     1.1697 H       
  36 H36            9.7662     1.7580     1.5383 H       
  37 H37           11.4490     3.0485     2.7799 H       
  38 H38           10.7601     4.4557     1.8640 H       
@<TRIPOS>BOND
   1    1    2 1
   2    1    9 1
   3    1   25 1
   4    2    3 2
   5    2   26 1
   6    3    4 1
   7    3   10 1
   8    4    5 ar
   9    4    9 ar
  10    5    6 ar
  11    5   27 1
  12    6    7 ar
  13    6   13 1
  14    7    8 ar
  15    7   24 1
  16    8    9 ar
  17    8   28 1
  18   10   11 2
  19   10   12 1
  20   12   29 1
  21   13   14 ar
  22   13   18 ar
  23   14   15 ar
  24   14   30 1
  25   15   16 ar
  26   15   31 1
  27   16   17 ar
  28   16   19 1
  29   17   18 ar
  30   17   32 1
  31   18   33 1
  32   19   22 1
  33   20   21 1
  34   20   23 1
  35   21   22 1
  36   21   34 1
  37   21   35 1
  38   22   23 1
  39   22   36 1
  40   23   37 1
  41   23   38 1

#	End of record

