#	Name: ASD01918090
#	Creating user name:	WinNT
#	Creation time:	15. 06. 2019 20:10

#	Modifying user name:	WinNT
#	Modification time:	15. 06. 2019 20:10

#	Program:	/corina/corina34_cracker 3.40 0067  02.08.2006

@<TRIPOS>MOLECULE
ASD01918090
  41   44    0    0    0
SMALL
NO_CHARGES


@<TRIPOS>ATOM
   1 N1             4.8252    -0.4043    -2.1401 N.ar    
   2 C2             5.2914     0.2917    -3.1578 C.ar    
   3 C3             5.1763     1.6746    -3.1854 C.ar    
   4 C4             4.5602     2.3233    -2.1218 C.ar    
   5 C5             4.0817     1.5534    -1.0671 C.ar    
   6 C6             4.2350     0.1750    -1.1136 C.ar    
   7 O7             3.4725     2.1431    -0.0051 O.3     
   8 C8             3.4500     3.5021     0.0445 C.2     
   9 N9             2.1945     5.5119    -0.0210 N.pl3   
  10 C10            2.2656     4.1562    -0.0650 C.2     
  11 C11            4.6480     4.2065     0.2134 C.2     
  12 C12            4.6168     5.5957     0.2636 C.2     
  13 C13            3.3227     6.2657     0.1366 C.2     
  14 C14            5.8551     6.3728     0.4406 C.2     
  15 N15            5.8052     7.7188     0.4869 N.am    
  16 O16            6.9229     5.7999     0.5450 O.2     
  17 N17            1.1295     6.4204    -0.1068 N.2     
  18 C18            1.6412     7.6244    -0.0088 C.2     
  19 N19            2.9566     7.5377     0.1431 N.2     
  20 O20            5.6600     2.3849    -4.2383 O.3     
  21 C21            6.2797     1.6436    -5.2912 C.3     
  22 C22            6.9593     8.4497     0.7596 C.ar    
  23 N23            8.1220     7.8242     0.8650 N.ar    
  24 C24            6.8805     9.8285     0.9127 C.ar    
  25 C25            8.0344    10.5443     1.1836 C.ar    
  26 C26            9.2321     9.8537     1.2924 C.ar    
  27 C27            9.2394     8.4795     1.1226 C.ar    
  28 F28           10.4034     7.8009     1.2216 F       
  29 H29            5.7691    -0.2203    -3.9800 H       
  30 H30            4.4560     3.3982    -2.1143 H       
  31 H31            3.8660    -0.4305    -0.2990 H       
  32 H32            1.3578     3.5848    -0.1904 H       
  33 H33            5.5851     3.6773     0.3040 H       
  34 H34            4.9656     8.1787     0.3303 H       
  35 H35            1.0774     8.5450    -0.0393 H       
  36 H36            5.5595     0.9443    -5.7158 H       
  37 H37            6.6207     2.3296    -6.0666 H       
  38 H38            7.1316     1.0916    -4.8942 H       
  39 H39            5.9313    10.3355     0.8213 H       
  40 H40            8.0025    11.6168     1.3071 H       
  41 H41           10.1500    10.3825     1.5026 H       
@<TRIPOS>BOND
   1    1    2 ar
   2    1    6 ar
   3    2    3 ar
   4    2   29 1
   5    3    4 ar
   6    3   20 1
   7    4    5 ar
   8    4   30 1
   9    5    6 ar
  10    5    7 1
  11    6   31 1
  12    7    8 1
  13    8   11 1
  14    8   10 2
  15    9   10 1
  16    9   17 1
  17    9   13 1
  18   10   32 1
  19   11   12 2
  20   11   33 1
  21   12   13 1
  22   12   14 1
  23   13   19 2
  24   14   15 am
  25   14   16 2
  26   15   22 1
  27   15   34 1
  28   17   18 2
  29   18   19 1
  30   18   35 1
  31   20   21 1
  32   21   36 1
  33   21   37 1
  34   21   38 1
  35   22   24 ar
  36   22   23 ar
  37   23   27 ar
  38   24   25 ar
  39   24   39 1
  40   25   26 ar
  41   25   40 1
  42   26   27 ar
  43   26   41 1
  44   27   28 1

#	End of record

