#	Name: ASD00990128
#	Creating user name:	WinNT
#	Creation time:	15. 06. 2019 18:54

#	Modifying user name:	WinNT
#	Modification time:	15. 06. 2019 18:54

#	Program:	/corina/corina34_cracker 3.40 0067  02.08.2006

@<TRIPOS>MOLECULE
ASD00990128
  70   74    0    0    0
SMALL
NO_CHARGES


@<TRIPOS>ATOM
   1 C1            -0.0173     1.4248     0.0099 C.3     
   2 O2             0.0021    -0.0041     0.0020 O.3     
   3 C3            -1.2013    -0.6380     0.0101 C.ar    
   4 C4            -2.3736     0.0986     0.0195 C.ar    
   5 C5            -3.5968    -0.5474     0.0272 C.ar    
   6 C6            -3.6532    -1.9283     0.0261 C.ar    
   7 C7            -2.4871    -2.6712     0.0168 C.ar    
   8 C8            -1.2573    -2.0304     0.0032 C.ar    
   9 N9            -0.0755    -2.7801    -0.0122 N.3     
  10 C10            0.0565    -3.5803     1.2134 C.3     
  11 C11            1.3952    -4.3219     1.1936 C.3     
  12 N12            1.4611    -5.1768     0.0001 N.3     
  13 C13            2.7014    -5.9637    -0.0160 C.3     
  14 C14            2.8548    -6.6463    -1.3767 C.3     
  15 C15            4.1467    -7.4658    -1.3934 C.3     
  16 H16            4.9878    -6.8237    -1.1320 H       
  17 C17            4.0406    -8.6058    -0.3785 C.3     
  18 C18            5.3325    -9.4254    -0.3952 C.3     
  19 C19            5.5498   -10.0063    -1.7938 C.3     
  20 H20            4.7088   -10.6485    -2.0552 H       
  21 C21            5.6559    -8.8664    -2.8088 C.3     
  22 C22            4.3640    -8.0468    -2.7920 C.3     
  23 N23            6.7868   -10.7911    -1.8099 N.am    
  24 C24            6.9454   -11.7808    -2.7109 C.2     
  25 O25            6.0613   -12.0224    -3.5108 O.2     
  26 C26            8.1871   -12.5685    -2.7270 C.2     
  27 C27            8.4651   -13.5829    -3.5870 C.2     
  28 C28            9.7548   -14.0747    -3.2711 C.ar    
  29 C29           10.5533   -15.0938    -3.8056 C.ar    
  30 C30           11.7861   -15.3395    -3.2742 C.ar    
  31 C31           12.2584   -14.5881    -2.2057 C.ar    
  32 C32           11.4922   -13.5809    -1.6628 C.ar    
  33 C33           10.2317   -13.3108    -2.1876 C.ar    
  34 N34            9.2591   -12.3911    -1.8738 N.pl3   
  35 H35            9.3153   -11.7283    -1.1679 H       
  36 C36            1.3291    -4.3766    -1.2254 C.3     
  37 C37           -0.0096    -3.6351    -1.2056 C.3     
  38 H38            1.0053     1.8021     0.0021 H       
  39 H39           -0.5445     1.7859    -0.8732 H       
  40 H40           -0.5275     1.7763     0.9067 H       
  41 H41           -2.3331     1.1779     0.0211 H       
  42 H42           -4.5101     0.0289     0.0345 H       
  43 H43           -4.6104    -2.4284     0.0329 H       
  44 H44           -2.5340    -3.7502     0.0159 H       
  45 H45            0.0173    -2.9236     2.0824 H       
  46 H46           -0.7584    -4.3023     1.2657 H       
  47 H47            2.2109    -3.5992     1.1687 H       
  48 H48            1.4825    -4.9386     2.0880 H       
  49 H49            3.5521    -5.3047     0.1579 H       
  50 H50            2.6619    -6.7204     0.7676 H       
  51 H51            2.0042    -7.3053    -1.5505 H       
  52 H52            2.8944    -5.8896    -2.1603 H       
  53 H53            3.8858    -8.1919     0.6179 H       
  54 H54            3.1996    -9.2479    -0.6399 H       
  55 H55            6.1736    -8.7832    -0.1338 H       
  56 H56            5.2570   -10.2375     0.3279 H       
  57 H57            6.4969    -8.2242    -2.5474 H       
  58 H58            5.8107    -9.2802    -3.8052 H       
  59 H59            3.5229    -8.6889    -3.0534 H       
  60 H60            4.4395    -7.2346    -3.5151 H       
  61 H61            7.4917   -10.5984    -1.1720 H       
  62 H62            7.8185   -13.9484    -4.3710 H       
  63 H63           10.1942   -15.6838    -4.6358 H       
  64 H64           12.3999   -16.1259    -3.6880 H       
  65 H65           13.2360   -14.7961    -1.7966 H       
  66 H66           11.8682   -13.0024    -0.8319 H       
  67 H67            2.1440    -3.6546    -1.2778 H       
  68 H68            1.3683    -5.0333    -2.0945 H       
  69 H69           -0.8253    -4.3577    -1.1807 H       
  70 H70           -0.0969    -3.0183    -2.1001 H       
@<TRIPOS>BOND
   1    1    2 1
   2    1   38 1
   3    1   39 1
   4    1   40 1
   5    2    3 1
   6    3    8 ar
   7    3    4 ar
   8    4    5 ar
   9    4   41 1
  10    5    6 ar
  11    5   42 1
  12    6    7 ar
  13    6   43 1
  14    7    8 ar
  15    7   44 1
  16    8    9 1
  17    9   37 1
  18    9   10 1
  19   10   11 1
  20   10   45 1
  21   10   46 1
  22   11   12 1
  23   11   47 1
  24   11   48 1
  25   12   13 1
  26   12   36 1
  27   13   14 1
  28   13   49 1
  29   13   50 1
  30   14   15 1
  31   14   51 1
  32   14   52 1
  33   15   16 1
  34   15   22 1
  35   15   17 1
  36   17   18 1
  37   17   53 1
  38   17   54 1
  39   18   19 1
  40   18   55 1
  41   18   56 1
  42   19   20 1
  43   19   21 1
  44   19   23 1
  45   21   22 1
  46   21   57 1
  47   21   58 1
  48   22   59 1
  49   22   60 1
  50   23   24 am
  51   23   61 1
  52   24   25 2
  53   24   26 1
  54   26   34 1
  55   26   27 2
  56   27   28 1
  57   27   62 1
  58   28   33 ar
  59   28   29 ar
  60   29   30 ar
  61   29   63 1
  62   30   31 ar
  63   30   64 1
  64   31   32 ar
  65   31   65 1
  66   32   33 ar
  67   32   66 1
  68   33   34 1
  69   34   35 1
  70   36   37 1
  71   36   67 1
  72   36   68 1
  73   37   69 1
  74   37   70 1

#	End of record

