#	Name: ASD02039485
#	Creating user name:	WinNT
#	Creation time:	15. 06. 2019 20:18

#	Modifying user name:	WinNT
#	Modification time:	15. 06. 2019 20:18

#	Program:	/corina/corina34_cracker 3.40 0067  02.08.2006

@<TRIPOS>MOLECULE
ASD02039485
  64   66    0    0    0
SMALL
NO_CHARGES


@<TRIPOS>ATOM
   1 C1             4.9789    -3.6008    -0.6595 C.2     
   2 N2             3.6845    -3.6003    -0.5217 N.2     
   3 C3             3.2534    -2.3164    -0.4284 C.2     
   4 C4             4.3488    -1.5079    -0.5151 C.2     
   5 N5             5.4242    -2.3174    -0.6594 N.pl3   
   6 C6             1.8571    -1.8763    -0.2635 C.2     
   7 O7             1.5981    -0.6904    -0.1886 O.2     
   8 N8             0.8668    -2.7880    -0.1958 N.am    
   9 C9             6.8182    -1.8867    -0.7918 C.3     
  10 C10            1.1680    -4.2110    -0.3702 C.3     
  11 C11            1.3200    -4.8616     0.9806 C.ar    
  12 C12            0.2484    -5.5164     1.5538 C.ar    
  13 C13            0.3892    -6.1176     2.8025 C.ar    
  14 C14            1.6149    -6.0540     3.4672 C.ar    
  15 C15            2.6805    -5.3955     2.8828 C.ar    
  16 C16            2.5344    -4.8059     1.6403 C.ar    
  17 C17           -2.0025    -6.2026     3.5131 C.ar    
  18 C18           -0.7591    -6.8222     3.4236 C.ar    
  19 C19           -0.6075    -8.1190     3.9270 C.ar    
  20 C20           -1.7047    -8.7353     4.4959 C.ar    
  21 C21           -2.9161    -8.0519     4.5496 C.ar    
  22 N22           -3.0259    -6.8247     4.0631 N.ar    
  23 N23           -4.0246    -8.6650     5.1204 N.3     
  24 C24           -5.2005    -7.7764     5.0775 C.3     
  25 C25           -6.3183    -8.5330     4.3296 C.3     
  26 C26           -5.9017   -10.0189     4.4890 C.3     
  27 C27           -4.3576    -9.9207     4.4146 C.3     
  28 F28            1.7593    -6.6343     4.6787 F       
  29 C29           -0.5109    -2.3559     0.0523 C.3     
  30 C30           -0.6649    -1.4776     1.3052 C.3     
  31 C31           -1.6579    -0.6298     0.4927 C.3     
  32 C32           -0.9267    -1.1228    -0.7671 C.3     
  33 H33            5.5992    -4.4799    -0.7539 H       
  34 H34            4.3566    -0.4286    -0.4765 H       
  35 H35            7.0551    -1.7417    -1.8459 H       
  36 H36            6.9613    -0.9490    -0.2549 H       
  37 H37            7.4754    -2.6490    -0.3733 H       
  38 H38            0.3546    -4.6904    -0.9149 H       
  39 H39            2.0955    -4.3199    -0.9323 H       
  40 H40           -0.6978    -5.5621     1.0352 H       
  41 H41            3.6297    -5.3448     3.3955 H       
  42 H42            3.3707    -4.2961     1.1852 H       
  43 H43           -2.1287    -5.2002     3.1315 H       
  44 H44            0.3446    -8.6259     3.8717 H       
  45 H45           -1.6238    -9.7359     4.8942 H       
  46 H46           -5.5254    -7.5422     6.0913 H       
  47 H47           -4.9526    -6.8589     4.5440 H       
  48 H48           -7.2860    -8.3517     4.7973 H       
  49 H49           -6.3384    -8.2492     3.2774 H       
  50 H50           -6.2219   -10.4128     5.4536 H       
  51 H51           -6.2943   -10.6243     3.6721 H       
  52 H52           -4.0302    -9.8707     3.3761 H       
  53 H53           -3.8985   -10.7719     4.9175 H       
  54 H54           -1.2270    -3.1761     0.0033 H       
  55 H55           -1.1212    -1.9960     2.1484 H       
  56 H56            0.2448    -0.9427     1.5779 H       
  57 H57           -2.6886    -0.9773     0.5634 H       
  58 H58           -1.5589     0.4421     0.6637 H       
  59 H59           -0.0886    -0.4908    -1.0609 H       
  60 H60           -1.5944    -1.3548    -1.5969 H       
  61 Cl61          12.4754     5.4421    11.0913 Cl      
  62 H62           12.4754     6.8121    11.0913 H       
  63 Cl63          17.4754    11.8121    16.0913 Cl      
  64 H64           17.4754    13.1821    16.0913 H       
@<TRIPOS>BOND
   1    1    2 2
   2    1    5 1
   3    1   33 1
   4    2    3 1
   5    3    4 2
   6    3    6 1
   7    4    5 1
   8    4   34 1
   9    5    9 1
  10    6    7 2
  11    6    8 am
  12    8   10 1
  13    8   29 1
  14    9   35 1
  15    9   36 1
  16    9   37 1
  17   10   11 1
  18   10   38 1
  19   10   39 1
  20   11   12 ar
  21   11   16 ar
  22   12   13 ar
  23   12   40 1
  24   13   14 ar
  25   13   18 1
  26   14   15 ar
  27   14   28 1
  28   15   16 ar
  29   15   41 1
  30   16   42 1
  31   17   18 ar
  32   17   22 ar
  33   17   43 1
  34   18   19 ar
  35   19   20 ar
  36   19   44 1
  37   20   21 ar
  38   20   45 1
  39   21   22 ar
  40   21   23 1
  41   23   24 1
  42   23   27 1
  43   24   25 1
  44   24   46 1
  45   24   47 1
  46   25   26 1
  47   25   48 1
  48   25   49 1
  49   26   27 1
  50   26   50 1
  51   26   51 1
  52   27   52 1
  53   27   53 1
  54   29   30 1
  55   29   32 1
  56   29   54 1
  57   30   31 1
  58   30   55 1
  59   30   56 1
  60   31   32 1
  61   31   57 1
  62   31   58 1
  63   32   59 1
  64   32   60 1
  65   61   62 1
  66   63   64 1

#	End of record

