#	Name: ASD01917449
#	Creating user name:	WinNT
#	Creation time:	15. 06. 2019 20:09

#	Modifying user name:	WinNT
#	Modification time:	15. 06. 2019 20:09

#	Program:	/corina/corina34_cracker 3.40 0067  02.08.2006

@<TRIPOS>MOLECULE
ASD01917449
  48   51    0    0    0
SMALL
NO_CHARGES


@<TRIPOS>ATOM
   1 C1            -0.0158     1.3116     0.0093 C.ar    
   2 N2             0.0021    -0.0041     0.0020 N.ar    
   3 C3             1.1550    -0.6685    -0.0125 C.ar    
   4 C4             2.3492     0.0531    -0.0200 C.ar    
   5 C5             2.2795     1.4390    -0.0119 C.ar    
   6 N6             1.0941     2.0240     0.0025 N.ar    
   7 C7             1.1703    -2.1530    -0.0202 C.2     
   8 O8             2.2285    -2.7494    -0.0335 O.2     
   9 N9             0.0102    -2.8389    -0.0124 N.am    
  10 C10            0.0253    -4.3038    -0.0199 C.3     
  11 C11            0.7451    -4.8800    -1.2519 C.3     
  12 C12            0.9194    -6.3887    -1.0672 C.3     
  13 C13           -0.4350    -7.0538    -0.8145 C.3     
  14 C14           -1.1039    -6.3842     0.3987 C.3     
  15 C15           -0.0295    -6.2460     1.5019 C.3     
  16 C16            0.7064    -4.8987     1.2343 C.3     
  17 C17           -1.4000    -4.9168    -0.0096 C.3     
  18 C18           -2.1872    -8.3930     1.2521 C.2     
  19 C19           -3.3863    -9.1245     1.7136 C.ar    
  20 C20           -3.2809   -10.4542     2.1244 C.ar    
  21 C21           -4.4056   -11.1318     2.5545 C.ar    
  22 C22           -5.6352   -10.4929     2.5779 C.ar    
  23 C23           -5.7441    -9.1754     2.1717 C.ar    
  24 C24           -4.6270    -8.4865     1.7456 C.ar    
  25 O25           -1.1068    -8.9495     1.2299 O.2     
  26 N26           -2.2920    -7.1090     0.8560 N.am    
  27 F27           -4.3065   -12.4191     2.9523 F       
  28 H28           -0.9670     1.8230     0.0165 H       
  29 H29            3.3028    -0.4537    -0.0315 H       
  30 H30            3.1821     2.0320    -0.0170 H       
  31 H31           -0.8348    -2.3627    -0.0017 H       
  32 H32            0.1499    -4.6882    -2.1447 H       
  33 H33            1.7230    -4.4099    -1.3559 H       
  34 H34            1.3674    -6.8127    -1.9659 H       
  35 H35            1.5766    -6.5745    -0.2177 H       
  36 H36           -1.0694    -6.9344    -1.6928 H       
  37 H37           -0.2880    -8.1144    -0.6106 H       
  38 H38           -0.5016    -6.2250     2.4841 H       
  39 H39            0.6768    -7.0741     1.4428 H       
  40 H40            1.7627    -5.0804     1.0363 H       
  41 H41            0.5945    -4.2191     2.0792 H       
  42 H42           -2.0353    -4.4166     0.7213 H       
  43 H43           -1.8475    -4.8821    -1.0029 H       
  44 H44           -2.3227   -10.9523     2.1058 H       
  45 H45           -6.5120   -11.0262     2.9144 H       
  46 H46           -6.7052    -8.6831     2.1923 H       
  47 H47           -4.7136    -7.4563     1.4330 H       
  48 H48           -3.1542    -6.6649     0.8737 H       
@<TRIPOS>BOND
   1    1    2 ar
   2    1    6 ar
   3    1   28 1
   4    2    3 ar
   5    3    4 ar
   6    3    7 1
   7    4    5 ar
   8    4   29 1
   9    5    6 ar
  10    5   30 1
  11    7    8 2
  12    7    9 am
  13    9   10 1
  14    9   31 1
  15   10   11 1
  16   10   16 1
  17   10   17 1
  18   11   12 1
  19   11   32 1
  20   11   33 1
  21   12   13 1
  22   12   34 1
  23   12   35 1
  24   13   14 1
  25   13   36 1
  26   13   37 1
  27   14   15 1
  28   14   17 1
  29   14   26 1
  30   15   16 1
  31   15   38 1
  32   15   39 1
  33   16   40 1
  34   16   41 1
  35   17   42 1
  36   17   43 1
  37   18   19 1
  38   18   25 2
  39   18   26 am
  40   19   20 ar
  41   19   24 ar
  42   20   21 ar
  43   20   44 1
  44   21   22 ar
  45   21   27 1
  46   22   23 ar
  47   22   45 1
  48   23   24 ar
  49   23   46 1
  50   24   47 1
  51   26   48 1

#	End of record

