#	Name: ASD02580007
#	Creating user name:	WinNT
#	Creation time:	15. 06. 2019 20:25

#	Modifying user name:	WinNT
#	Modification time:	15. 06. 2019 20:25

#	Program:	/corina/corina34_cracker 3.40 0067  02.08.2006

@<TRIPOS>MOLECULE
ASD02580007
  45   47    0    0    0
SMALL
NO_CHARGES


@<TRIPOS>ATOM
   1 O1            -0.0175     1.4400     0.0100 O.3     
   2 C2             0.0021    -0.0041     0.0020 C.3     
   3 C3             1.3704     1.8394    -0.0011 C.3     
   4 C4             1.1520    -0.3885     0.9592 C.3     
   5 C5             2.0729     0.8522     0.9571 C.3     
   6 O6             0.6481    -0.6358     2.2734 O.3     
   7 C7            -1.3278    -0.5576     0.5178 C.3     
   8 O8            -2.3700    -0.2279    -0.4027 O.3     
   9 P9            -3.9061    -0.6539    -0.1772 P.3     
  10 O10           -4.3852    -0.1439     1.2003 O.co2   
  11 O11           -4.8180    -0.0070    -1.3357 O.3     
  12 O12           -4.0262    -2.1934    -0.2266 O.co2   
  13 P13           -6.3913     0.3041    -1.4779 P.3     
  14 O14           -6.7675     0.4670    -3.0349 O.3     
  15 P15           -8.1524     0.4755    -3.8558 P.3     
  16 O16           -7.8591     0.1573    -5.4065 O.3     
  17 O17           -7.2037    -0.8615    -0.8710 O.co2   
  18 O18           -6.7275     1.6120    -0.7273 O.co2   
  19 O19           -9.0994    -0.6006    -3.2795 O.2     
  20 O20           -8.8160     1.8652    -3.7319 O.3     
  21 N21            1.5098     3.2128     0.4894 N.pl3   
  22 C22            0.6172     3.8403     1.3018 C.2     
  23 C23            1.0501     5.1055     1.5664 C.2     
  24 C24            2.3246     5.2650     0.8493 C.ar    
  25 C25            2.5605     4.0432     0.1989 C.ar    
  26 C26            3.2603     6.2972     0.7069 C.ar    
  27 N27            4.3343     6.0766    -0.0464 N.ar    
  28 C28            4.5162     4.9141    -0.6461 C.ar    
  29 N29            3.6662     3.9164    -0.5338 N.ar    
  30 N30            3.0720     7.5164     1.3337 N.pl3   
  31 C31            0.3946     6.0845     2.3804 C.1     
  32 N32           -0.1253     6.8612     3.0261 N.1     
  33 H33            0.2045    -0.3753    -1.0026 H       
  34 H34            1.7827     1.7510    -1.0063 H       
  35 H35            1.6861    -1.2612     0.5835 H       
  36 H36            3.0622     0.5929     0.5803 H       
  37 H37            2.1438     1.2770     1.9584 H       
  38 H38            1.3281    -0.8813     2.9156 H       
  39 H39           -1.2574    -1.6411     0.6141 H       
  40 H40           -1.5506    -0.1200     1.4909 H       
  41 H41           -8.6503     0.1463    -5.9623 H       
  42 H42           -0.2953     3.4030     1.6792 H       
  43 H43            5.4014     4.7751    -1.2490 H       
  44 H44            2.2843     7.6644     1.8800 H       
  45 H45            3.7279     8.2230     1.2268 H       
@<TRIPOS>BOND
   1    1    2 1
   2    1    3 1
   3    2    4 1
   4    2    7 1
   5    2   33 1
   6    3    5 1
   7    3   21 1
   8    3   34 1
   9    4    5 1
  10    4    6 1
  11    4   35 1
  12    5   36 1
  13    5   37 1
  14    6   38 1
  15    7    8 1
  16    7   39 1
  17    7   40 1
  18    8    9 1
  19    9   10 ar
  20    9   11 1
  21    9   12 ar
  22   11   13 1
  23   13   14 1
  24   13   17 ar
  25   13   18 ar
  26   14   15 1
  27   15   16 1
  28   15   19 2
  29   15   20 1
  30   16   41 1
  31   21   22 1
  32   21   25 1
  33   22   23 2
  34   22   42 1
  35   23   24 1
  36   23   31 1
  37   24   25 ar
  38   24   26 ar
  39   25   29 ar
  40   26   27 ar
  41   26   30 1
  42   27   28 ar
  43   28   29 ar
  44   28   43 1
  45   30   44 1
  46   30   45 1
  47   31   32 3

#	End of record

