#	Name: ASD01028721
#	Creating user name:	WinNT
#	Creation time:	15. 06. 2019 18:58

#	Modifying user name:	WinNT
#	Modification time:	15. 06. 2019 18:58

#	Program:	/corina/corina34_cracker 3.40 0067  02.08.2006

@<TRIPOS>MOLECULE
ASD01028721
  47   49    0    0    0
SMALL
NO_CHARGES


@<TRIPOS>ATOM
   1 C1            -0.0162     1.3436     0.0094 C.2     
   2 N2             0.0021    -0.0041     0.0020 N.am    
   3 O3             1.0278     1.9654     0.0028 O.2     
   4 O4            -1.1914     2.0009     0.0186 O.3     
   5 C5            -1.2565    -0.7538     0.0100 C.3     
   6 C6             2.7480    -2.2445    -0.0367 C.2     
   7 C7             3.2423    -3.5643    -0.0479 C.2     
   8 C8             2.3650    -4.6002    -0.0441 C.2     
   9 C9             0.9723    -4.3513    -0.0290 C.2     
  10 N10            0.5087    -3.1187    -0.0183 N.2     
  11 N11            1.3864    -2.0331    -0.0221 N.pl3   
  12 N12            2.4160    -0.1399    -0.0202 N.2     
  13 N13            3.3215    -1.0543    -0.0315 N.2     
  14 C14            1.2192    -0.6849    -0.0133 C.2     
  15 S15            0.4609    -7.1937    -0.0379 S.3     
  16 C16           -1.1933    -7.6246    -0.0241 C.2     
  17 N17           -1.9365    -6.5591    -0.0118 N.2     
  18 C18           -1.3182    -5.3982    -0.0121 C.2     
  19 C19            0.0284    -5.4859    -0.0255 C.2     
  20 N20           -1.6720    -8.9222    -0.0259 N.pl3   
  21 C21           -3.1158    -9.1702    -0.0132 C.3     
  22 C22           -0.7353   -10.0485    -0.0403 C.3     
  23 C23           -1.1351     3.4518     0.0262 C.3     
  24 C24           -0.4006     3.9403    -1.2239 C.3     
  25 C25           -2.5567     4.0173     0.0360 C.3     
  26 C26           -0.3887     3.9267     1.2745 C.3     
  27 H27           -1.5785    -0.9342    -1.0156 H       
  28 H28           -1.1084    -1.7071     0.5173 H       
  29 H29           -2.0192    -0.1778     0.5342 H       
  30 H30            4.3063    -3.7493    -0.0598 H       
  31 H31            2.7309    -5.6163    -0.0529 H       
  32 H32           -1.8436    -4.4547    -0.0031 H       
  33 H33           -3.4837    -9.2268    -1.0377 H       
  34 H34           -3.3183   -10.1114     0.4980 H       
  35 H35           -3.6196    -8.3571     0.5094 H       
  36 H36           -0.4932   -10.3328     0.9837 H       
  37 H37           -1.1922   -10.8944    -0.5539 H       
  38 H38            0.1763    -9.7563    -0.5615 H       
  39 H39           -0.9323     3.6020    -2.1132 H       
  40 H40           -0.3583     5.0294    -1.2182 H       
  41 H41            0.6122     3.5374    -1.2309 H       
  42 H42           -3.0800     3.6694     0.9266 H       
  43 H43           -2.5144     5.1065     0.0417 H       
  44 H44           -3.0885     3.6790    -0.8533 H       
  45 H45            0.6241     3.5238     1.2675 H       
  46 H46           -0.3464     5.0159     1.2802 H       
  47 H47           -0.9120     3.5787     2.1651 H       
@<TRIPOS>BOND
   1    1    2 am
   2    1    3 2
   3    1    4 1
   4    2    5 1
   5    2   14 1
   6    4   23 1
   7    5   27 1
   8    5   28 1
   9    5   29 1
  10    6    7 1
  11    6   11 1
  12    6   13 2
  13    7    8 2
  14    7   30 1
  15    8    9 1
  16    8   31 1
  17    9   10 2
  18    9   19 1
  19   10   11 1
  20   11   14 1
  21   12   13 1
  22   12   14 2
  23   15   16 1
  24   15   19 1
  25   16   17 2
  26   16   20 1
  27   17   18 1
  28   18   19 2
  29   18   32 1
  30   20   21 1
  31   20   22 1
  32   21   33 1
  33   21   34 1
  34   21   35 1
  35   22   36 1
  36   22   37 1
  37   22   38 1
  38   23   24 1
  39   23   26 1
  40   23   25 1
  41   24   39 1
  42   24   40 1
  43   24   41 1
  44   25   42 1
  45   25   43 1
  46   25   44 1
  47   26   45 1
  48   26   46 1
  49   26   47 1

#	End of record

