#	Name: ASD01890035
#	Creating user name:	WinNT
#	Creation time:	15. 06. 2019 19:50

#	Modifying user name:	WinNT
#	Modification time:	15. 06. 2019 19:50

#	Program:	/corina/corina34_cracker 3.40 0067  02.08.2006

@<TRIPOS>MOLECULE
ASD01890035
 110  112    0    0    0
SMALL
NO_CHARGES


@<TRIPOS>ATOM
   1 C1             0.5258     1.0059    -0.0235 C.3     
   2 C2             0.3971    -0.4954    -0.0042 C.2     
   3 N3             0.5378    -1.1690     1.1546 N.am    
   4 C4             0.4128    -2.6286     1.1734 C.3     
   5 C5             1.1781    -3.1833     2.3471 C.2     
   6 N6             1.2051    -4.5128     2.5663 N.am    
   7 C7             2.0065     1.3909    -0.0239 C.3     
   8 N8            -0.1186     1.5371    -1.2320 N.3     
   9 C9             2.1381     2.9116     0.0823 C.3     
  10 C10            3.6189     3.2965     0.0820 C.3     
  11 N11            3.7453     4.7565     0.1840 N.3     
  12 O12            0.1669    -1.0976    -1.0315 O.2     
  13 C13           -1.0629    -3.0124     1.2995 C.3     
  14 C14           -1.8056    -2.5644     0.0671 C.ar    
  15 C15           -1.9161    -3.4132    -1.0188 C.ar    
  16 O16            1.7698    -2.4333     3.0943 O.2     
  17 C17            1.9492    -5.0521     3.7073 C.3     
  18 C18            1.0791    -5.0124     4.9382 C.2     
  19 N19            0.3306    -6.0751     5.2681 N.am    
  20 C20            0.4257    -7.4293     4.6976 C.3     
  21 C21            1.1138    -7.3841     3.3407 C.3     
  22 C22            2.3558    -6.4963     3.4132 C.3     
  23 C23           -0.7792    -6.1100     6.2336 C.3     
  24 C24           -1.7212    -7.2479     5.7918 C.3     
  25 C25           -1.0492    -7.8628     4.5404 C.3     
  26 O26            1.0564    -4.0176     5.6314 O.2     
  27 C27           -1.5166    -4.7959     6.2183 C.2     
  28 O28           -1.1573    -3.9075     5.4749 O.2     
  29 N29           -2.5755    -4.6078     7.0306 N.am    
  30 C30           -3.2247    -3.2961     7.0961 C.3     
  31 C31           -3.2895    -2.8312     8.5523 C.3     
  32 C32           -4.6211    -3.3984     6.5388 C.2     
  33 N33           -5.4117    -2.3077     6.4975 N.am    
  34 O34           -5.0335    -4.4622     6.1275 O.2     
  35 C35           -6.7692    -2.4071     5.9557 C.3     
  36 C36           -7.6270    -1.3181     6.5469 C.2     
  37 C37           -6.7239    -2.2513     4.4344 C.3     
  38 O38           -7.1512    -0.5360     7.3424 O.2     
  39 N39           -8.9229    -1.2134     6.1916 N.am    
  40 C40           -5.9574    -3.4264     3.8240 C.3     
  41 C41           -6.7285    -4.7238     4.0752 C.3     
  42 C42           -5.8040    -3.2078     2.3175 C.3     
  43 C43           -9.7567    -0.1548     6.7662 C.3     
  44 C44          -10.8959     0.1521     5.8286 C.2     
  45 C45          -10.3155    -0.6199     8.1125 C.3     
  46 O46          -11.0009    -0.4538     4.7832 O.2     
  47 N47          -11.7980     1.0998     6.1517 N.am    
  48 C48           -2.5964    -3.0049    -2.1497 C.ar    
  49 C49           -3.1689    -1.7420    -2.1953 C.ar    
  50 C50           -3.0565    -0.8922    -1.1044 C.ar    
  51 C51           -2.3801    -1.3074     0.0263 C.ar    
  52 O52           -3.8382    -1.3379    -3.3068 O.3     
  53 C53           -1.8929    -2.5935     9.0663 C.2     
  54 O54           -0.9504    -2.6755     8.3148 O.2     
  55 O55           -1.6961    -2.2907    10.3591 O.3     
  56 H56            0.0420     1.4234     0.8596 H       
  57 H57            0.7220    -0.6874     1.9763 H       
  58 H58            0.8174    -3.0398     0.2486 H       
  59 H59            0.7319    -5.1126     1.9687 H       
  60 H60            2.5038     0.9230     0.8257 H       
  61 H61            2.4704     1.0498    -0.9494 H       
  62 H62            0.3123     1.1648    -2.0650 H       
  63 H63           -1.1104     1.3518    -1.2242 H       
  64 H64            1.6409     3.3795    -0.7673 H       
  65 H65            1.6743     3.2526     1.0079 H       
  66 H66            4.1162     2.8286     0.9316 H       
  67 H67            4.0828     2.9555    -0.8435 H       
  68 H68            4.7147     5.0363     0.1857 H       
  69 H69            3.2376     5.2161    -0.5571 H       
  70 H70           -1.1495    -4.0940     1.4028 H       
  71 H71           -1.4906    -2.5282     2.1775 H       
  72 H72           -1.4700    -4.3961    -0.9829 H       
  73 H73            2.8427    -4.4507     3.8749 H       
  74 H74            0.9631    -8.0926     5.3753 H       
  75 H75            1.4069    -8.3929     3.0501 H       
  76 H76            0.4241    -6.9818     2.5987 H       
  77 H77            2.8851    -6.5362     2.4612 H       
  78 H78            3.0121    -6.8562     4.2057 H       
  79 H79           -0.3962    -6.3109     7.2341 H       
  80 H80           -1.8082    -7.9952     6.5806 H       
  81 H81           -2.7031    -6.8491     5.5369 H       
  82 H82           -1.4785    -7.4482     3.6283 H       
  83 H83           -1.1355    -8.9493     4.5501 H       
  84 H84           -2.9077    -5.3409     7.5720 H       
  85 H85           -2.6515    -2.5774     6.5104 H       
  86 H86           -3.8615    -1.9054     8.6130 H       
  87 H87           -3.7737    -3.5978     9.1572 H       
  88 H88           -5.0819    -1.4569     6.8265 H       
  89 H89           -7.1912    -3.3797     6.2089 H       
  90 H90           -7.7400    -2.2363     4.0402 H       
  91 H91           -6.2215    -1.3181     4.1795 H       
  92 H92           -9.3034    -1.8389     5.5553 H       
  93 H93           -4.9714    -3.4949     4.2834 H       
  94 H94           -7.7145    -4.6552     3.6157 H       
  95 H95           -6.1824    -5.5610     3.6403 H       
  96 H96           -6.8378    -4.8795     5.1484 H       
  97 H97           -5.2548    -2.2835     2.1385 H       
  98 H98           -5.2580    -4.0449     1.8826 H       
  99 H99           -6.7901    -3.1392     1.8580 H       
 100 H100          -9.1552     0.7422     6.9129 H       
 101 H101         -10.9170    -1.5170     7.9658 H       
 102 H102          -9.4915    -0.8419     8.7907 H       
 103 H103         -10.9359     0.1677     8.5400 H       
 104 H104         -11.7140     1.5844     6.9878 H       
 105 H105         -12.5312     1.2974     5.5481 H       
 106 H106          -2.6821    -3.6681    -2.9977 H       
 107 H107          -3.5014     0.0913    -1.1375 H       
 108 H108          -2.2924    -0.6463     0.8757 H       
 109 H109          -4.7818    -1.5488    -3.2962 H       
 110 H110          -0.7827    -2.1469    10.6422 H       
@<TRIPOS>BOND
   1    1    2 1
   2    1    7 1
   3    1    8 1
   4    1   56 1
   5    2    3 am
   6    2   12 2
   7    3    4 1
   8    3   57 1
   9    4    5 1
  10    4   13 1
  11    4   58 1
  12    5    6 am
  13    5   16 2
  14    6   17 1
  15    6   59 1
  16    7    9 1
  17    7   60 1
  18    7   61 1
  19    8   62 1
  20    8   63 1
  21    9   10 1
  22    9   64 1
  23    9   65 1
  24   10   11 1
  25   10   66 1
  26   10   67 1
  27   11   68 1
  28   11   69 1
  29   13   14 1
  30   13   70 1
  31   13   71 1
  32   14   15 ar
  33   14   51 ar
  34   15   48 ar
  35   15   72 1
  36   17   18 1
  37   17   22 1
  38   17   73 1
  39   18   19 am
  40   18   26 2
  41   19   20 1
  42   19   23 1
  43   20   21 1
  44   20   25 1
  45   20   74 1
  46   21   22 1
  47   21   75 1
  48   21   76 1
  49   22   77 1
  50   22   78 1
  51   23   24 1
  52   23   27 1
  53   23   79 1
  54   24   25 1
  55   24   80 1
  56   24   81 1
  57   25   82 1
  58   25   83 1
  59   27   28 2
  60   27   29 am
  61   29   30 1
  62   29   84 1
  63   30   31 1
  64   30   32 1
  65   30   85 1
  66   31   53 1
  67   31   86 1
  68   31   87 1
  69   32   33 am
  70   32   34 2
  71   33   35 1
  72   33   88 1
  73   35   36 1
  74   35   37 1
  75   35   89 1
  76   36   38 2
  77   36   39 am
  78   37   40 1
  79   37   90 1
  80   37   91 1
  81   39   43 1
  82   39   92 1
  83   40   41 1
  84   40   42 1
  85   40   93 1
  86   41   94 1
  87   41   95 1
  88   41   96 1
  89   42   97 1
  90   42   98 1
  91   42   99 1
  92   43   44 1
  93   43   45 1
  94   43  100 1
  95   44   46 2
  96   44   47 am
  97   45  101 1
  98   45  102 1
  99   45  103 1
 100   47  104 1
 101   47  105 1
 102   48   49 ar
 103   48  106 1
 104   49   50 ar
 105   49   52 1
 106   50   51 ar
 107   50  107 1
 108   51  108 1
 109   52  109 1
 110   53   54 2
 111   53   55 1
 112   55  110 1

#	End of record

