#	Name: ASD01148750
#	Creating user name:	WinNT
#	Creation time:	15. 06. 2019 19:03

#	Modifying user name:	WinNT
#	Modification time:	15. 06. 2019 19:03

#	Program:	/corina/corina34_cracker 3.40 0067  02.08.2006

@<TRIPOS>MOLECULE
ASD01148750
  55   58    0    0    0
SMALL
NO_CHARGES


@<TRIPOS>ATOM
   1 C1             0.3055     1.7781     0.1854 C.ar    
   2 C2             0.1829     0.4054     0.0720 C.ar    
   3 C3             1.3121    -0.3886     0.0243 C.ar    
   4 C4             2.5712     0.1929     0.0903 C.ar    
   5 C5             2.6910     1.5715     0.2041 C.ar    
   6 C6             1.5581     2.3601     0.2513 C.ar    
   7 S7            -1.1373     2.7881     0.2386 S.o2    
   8 O8            -0.7381     4.0811    -0.1953 O.2     
   9 O9            -2.1721     2.0430    -0.3883 O.2     
  10 N10           -1.5696     2.9418     1.8298 N.am    
  11 N11            3.7186    -0.6099     0.0426 N.pl3   
  12 C12            4.1299    -1.3305    -1.0294 C.2     
  13 C13            5.2939    -1.9844    -0.6864 C.2     
  14 C14            5.5874    -1.6336     0.6570 C.2     
  15 C15            4.6107    -0.7881     1.0739 C.2     
  16 C16            6.0835    -2.8785    -1.5506 C.2     
  17 O17            6.2525    -2.5987    -2.7221 O.2     
  18 N18            6.6185    -4.0066    -1.0432 N.am    
  19 C19            6.3274    -4.4183     0.3369 C.3     
  20 C20            5.8035    -5.8577     0.3220 C.3     
  21 C21            6.8095    -6.7550    -0.4027 C.3     
  22 C22            6.9665    -6.2831    -1.8500 C.3     
  23 C23            7.4991    -4.8514    -1.8615 C.3     
  24 C24            3.4348    -1.4044    -2.3645 C.3     
  25 C25            4.5195    -0.1663     2.4127 C.ar    
  26 C26            3.2946     0.3105     2.8815 C.ar    
  27 C27            3.2156     0.8896     4.1311 C.ar    
  28 C28            4.3486     0.9981     4.9197 C.ar    
  29 C29            5.5667     0.5272     4.4596 C.ar    
  30 C30            5.6568    -0.0593     3.2143 C.ar    
  31 Cl31           4.2415     1.7281     6.4911 Cl      
  32 H32           -0.7967    -0.0464     0.0211 H       
  33 H33            1.2157    -1.4607    -0.0638 H       
  34 H34            3.6690     2.0267     0.2560 H       
  35 H35            1.6506     3.4326     0.3394 H       
  36 H36           -1.0441     2.5068     2.5194 H       
  37 H37           -2.3484     3.4668     2.0722 H       
  38 H38            6.4325    -1.9726     1.2377 H       
  39 H39            7.2384    -4.3671     0.9333 H       
  40 H40            5.5716    -3.7587     0.7632 H       
  41 H41            5.6746    -6.2086     1.3459 H       
  42 H42            4.8460    -5.8910    -0.1978 H       
  43 H43            7.7736    -6.7020     0.1031 H       
  44 H44            6.4507    -7.7842    -0.3932 H       
  45 H45            7.6653    -6.9367    -2.3720 H       
  46 H46            5.9980    -6.3124    -2.3493 H       
  47 H47            7.5160    -4.4775    -2.8853 H       
  48 H48            8.5075    -4.8363    -1.4481 H       
  49 H49            3.8156    -0.6182    -3.0164 H       
  50 H50            3.6238    -2.3768    -2.8193 H       
  51 H51            2.3621    -1.2716    -2.2235 H       
  52 H52            2.4103     0.2267     2.2671 H       
  53 H53            2.2683     1.2593     4.4948 H       
  54 H54            6.4472     0.6149     5.0789 H       
  55 H55            6.6064    -0.4307     2.8585 H       
@<TRIPOS>BOND
   1    1    2 ar
   2    1    6 ar
   3    1    7 1
   4    2    3 ar
   5    2   32 1
   6    3    4 ar
   7    3   33 1
   8    4    5 ar
   9    4   11 1
  10    5    6 ar
  11    5   34 1
  12    6   35 1
  13    7    8 2
  14    7    9 2
  15    7   10 am
  16   10   36 1
  17   10   37 1
  18   11   12 1
  19   11   15 1
  20   12   13 2
  21   12   24 1
  22   13   14 1
  23   13   16 1
  24   14   15 2
  25   14   38 1
  26   15   25 1
  27   16   17 2
  28   16   18 am
  29   18   19 1
  30   18   23 1
  31   19   20 1
  32   19   39 1
  33   19   40 1
  34   20   21 1
  35   20   41 1
  36   20   42 1
  37   21   22 1
  38   21   43 1
  39   21   44 1
  40   22   23 1
  41   22   45 1
  42   22   46 1
  43   23   47 1
  44   23   48 1
  45   24   49 1
  46   24   50 1
  47   24   51 1
  48   25   26 ar
  49   25   30 ar
  50   26   27 ar
  51   26   52 1
  52   27   28 ar
  53   27   53 1
  54   28   29 ar
  55   28   31 1
  56   29   30 ar
  57   29   54 1
  58   30   55 1

#	End of record

