#	Name: ASD02448095
#	Creating user name:	WinNT
#	Creation time:	15. 06. 2019 20:21

#	Modifying user name:	WinNT
#	Modification time:	15. 06. 2019 20:21

#	Program:	/corina/corina34_cracker 3.40 0067  02.08.2006

@<TRIPOS>MOLECULE
ASD02448095
  77   83    0    0    0
SMALL
NO_CHARGES


@<TRIPOS>ATOM
   1 C1             3.3181    -7.4083    -1.0997 C.ar    
   2 C2             2.8026    -6.2967    -0.4639 C.ar    
   3 C3             2.1988    -5.2903    -1.2054 C.ar    
   4 C4             2.1125    -5.4016    -2.5865 C.ar    
   5 C5             2.6277    -6.5129    -3.2231 C.ar    
   6 C6             3.2324    -7.5198    -2.4816 C.ar    
   7 N7             3.7547    -8.6453    -3.1261 N.am    
   8 C8             4.8251    -9.5365    -2.6602 C.3     
   9 C9             5.0895   -10.6294    -3.6449 C.2     
  10 N10            4.3206   -10.5947    -4.7424 N.am    
  11 S11            3.2998    -9.2878    -4.5970 S.o2    
  12 O12            5.9341   -11.4811    -3.4653 O.2     
  13 O13            1.9822    -9.7994    -4.4498 O.2     
  14 O14            3.6786    -8.3471    -5.5923 O.2     
  15 N15            1.6748    -4.1603    -0.5585 N.pl3   
  16 C16            0.7437    -4.1584     0.4450 C.2     
  17 C17            2.0020    -2.8654    -0.8079 C.2     
  18 N18            1.3135    -2.0956    -0.0119 N.2     
  19 C19            0.5270    -2.8581     0.7745 C.2     
  20 C20           -0.4087    -2.3648     1.8147 C.ar    
  21 C21           -0.5335    -0.9958     2.0515 C.ar    
  22 C22           -1.1701    -3.2670     2.5545 C.ar    
  23 C23           -2.0393    -2.8032     3.5213 C.ar    
  24 C24           -2.1557    -1.4442     3.7568 C.ar    
  25 C25           -1.4060    -0.5424     3.0210 C.ar    
  26 Cl26          -3.2514    -0.8681     4.9739 Cl      
  27 Cl27           0.4066     0.1355     1.1296 Cl      
  28 C28            2.9983    -2.3956    -1.8363 C.3     
  29 C29            4.3370    -2.1821    -1.1780 C.ar    
  30 C30            5.2085    -3.2458    -1.0281 C.ar    
  31 C31            4.6919    -0.9221    -0.7310 C.ar    
  32 C32            5.9170    -0.7206    -0.1282 C.ar    
  33 C33            6.7968    -1.7897     0.0302 C.ar    
  34 C34            6.4360    -3.0559    -0.4263 C.ar    
  35 C35            8.1152    -1.5792     0.6770 C.ar    
  36 C36            8.9886    -2.6539     0.8312 C.ar    
  37 N37            8.4551    -0.3684     1.0989 N.ar    
  38 C38            9.6162    -0.1395     1.6782 C.ar    
  39 C39           10.5283    -1.1609     1.8682 C.ar    
  40 C40           10.2150    -2.4422     1.4365 C.ar    
  41 C41           11.8528    -0.8843     2.5318 C.3     
  42 C42           12.6278     0.1495     1.7124 C.3     
  43 C43           13.9724     0.4303     2.3861 C.3     
  44 C44           13.7328     0.9730     3.7964 C.3     
  45 C45           12.9578    -0.0609     4.6158 C.3     
  46 C46           11.6132    -0.3417     3.9421 C.3     
  47 H47            3.7918    -8.1891    -0.5232 H       
  48 H48            2.8689    -6.2101     0.6106 H       
  49 H49            1.6420    -4.6188    -3.1629 H       
  50 H50            2.5603    -6.5995    -4.2975 H       
  51 H51            5.7366    -8.9558    -2.5182 H       
  52 H52            4.5330    -9.9776    -1.7072 H       
  53 H53            4.3512   -11.2188    -5.4843 H       
  54 H54            0.2726    -5.0229     0.8889 H       
  55 H55           -1.0806    -4.3277     2.3717 H       
  56 H56           -2.6300    -3.5021     4.0949 H       
  57 H57           -1.5004     0.5169     3.2085 H       
  58 H58            3.0943    -3.1477    -2.6194 H       
  59 H59            2.6547    -1.4580    -2.2733 H       
  60 H60            4.9278    -4.2266    -1.3823 H       
  61 H61            4.0092    -0.0944    -0.8543 H       
  62 H62            6.1934     0.2637     0.2198 H       
  63 H63            7.1140    -3.8879    -0.3061 H       
  64 H64            8.7122    -3.6384     0.4836 H       
  65 H65            9.8589     0.8597     2.0087 H       
  66 H66           10.9110    -3.2566     1.5736 H       
  67 H67           12.4294    -1.8075     2.5908 H       
  68 H68           12.7985    -0.2371     0.7076 H       
  69 H69           12.0512     1.0727     1.6534 H       
  70 H70           14.5490    -0.4928     2.4451 H       
  71 H71           14.5245     1.1669     1.8023 H       
  72 H72           14.6908     1.1730     4.2764 H       
  73 H73           13.1562     1.8961     3.7374 H       
  74 H74           13.5344    -0.9840     4.6748 H       
  75 H75           12.7871     0.3257     5.6206 H       
  76 H76           11.0366     0.5814     3.8831 H       
  77 H77           11.0611    -1.0782     4.5259 H       
@<TRIPOS>BOND
   1    1    2 ar
   2    1    6 ar
   3    1   47 1
   4    2    3 ar
   5    2   48 1
   6    3    4 ar
   7    3   15 1
   8    4    5 ar
   9    4   49 1
  10    5    6 ar
  11    5   50 1
  12    6    7 1
  13    7    8 1
  14    7   11 am
  15    8    9 1
  16    8   51 1
  17    8   52 1
  18    9   10 am
  19    9   12 2
  20   10   11 am
  21   10   53 1
  22   11   13 2
  23   11   14 2
  24   15   16 1
  25   15   17 1
  26   16   19 2
  27   16   54 1
  28   17   18 2
  29   17   28 1
  30   18   19 1
  31   19   20 1
  32   20   21 ar
  33   20   22 ar
  34   21   27 1
  35   21   25 ar
  36   22   23 ar
  37   22   55 1
  38   23   24 ar
  39   23   56 1
  40   24   25 ar
  41   24   26 1
  42   25   57 1
  43   28   29 1
  44   28   58 1
  45   28   59 1
  46   29   30 ar
  47   29   31 ar
  48   30   34 ar
  49   30   60 1
  50   31   32 ar
  51   31   61 1
  52   32   33 ar
  53   32   62 1
  54   33   34 ar
  55   33   35 1
  56   34   63 1
  57   35   36 ar
  58   35   37 ar
  59   36   40 ar
  60   36   64 1
  61   37   38 ar
  62   38   39 ar
  63   38   65 1
  64   39   40 ar
  65   39   41 1
  66   40   66 1
  67   41   42 1
  68   41   46 1
  69   41   67 1
  70   42   43 1
  71   42   68 1
  72   42   69 1
  73   43   44 1
  74   43   70 1
  75   43   71 1
  76   44   45 1
  77   44   72 1
  78   44   73 1
  79   45   46 1
  80   45   74 1
  81   45   75 1
  82   46   76 1
  83   46   77 1

#	End of record

