#	Name: ASD01209348
#	Creating user name:	WinNT
#	Creation time:	15. 06. 2019 19:11

#	Modifying user name:	WinNT
#	Modification time:	15. 06. 2019 19:11

#	Program:	/corina/corina34_cracker 3.40 0067  02.08.2006

@<TRIPOS>MOLECULE
ASD01209348
  50   52    0    0    0
SMALL
NO_CHARGES


@<TRIPOS>ATOM
   1 C1             1.2074     1.0388     2.6565 C.2     
   2 C2             0.8686    -0.2878     2.0270 C.3     
   3 O3             1.8319     1.8667     2.0275 O.2     
   4 N4             0.8116     1.3075     3.9165 N.am    
   5 S5             0.6872     3.0034     6.0812 S.3     
   6 C6             1.1242     2.5311     4.4972 C.2     
   7 N7             1.7900     3.4799     3.9168 N.2     
   8 C8             1.9979     4.5789     4.6175 C.2     
   9 C9             1.4833     4.5577     5.8486 C.2     
  10 S10            1.5260    -0.3412     0.3414 Du      
  11 N11            1.7423    -2.8199     1.3792 N.am    
  12 C12            1.1383    -2.1067     0.2462 C.3     
  13 C13           -0.3523    -2.3204     0.3717 C.2     
  14 C14           -0.5483    -3.0680     1.4531 C.2     
  15 C15            0.7396    -3.3807     2.0809 C.2     
  16 O16            0.8810    -4.0488     3.0872 O.2     
  17 C17           -1.8923    -3.5259     1.9580 C.3     
  18 C18           -1.4153    -1.7867    -0.5536 C.3     
  19 C19            2.1835    -0.3947    -1.3441 C.3     
  20 C20            2.6703     0.9763    -1.7371 C.ar    
  21 C21            3.9796     1.3422    -1.4850 C.ar    
  22 C22            4.4284     2.5984    -1.8443 C.ar    
  23 C23            3.5640     3.4930    -2.4585 C.ar    
  24 C24            2.2508     3.1234    -2.7104 C.ar    
  25 C25            1.8085     1.8640    -2.3542 C.ar    
  26 O26            4.0030     4.7295    -2.8125 O.3     
  27 C27            3.0580     5.5980    -3.4409 C.3     
  28 H28            1.3102    -1.0924     2.6149 H       
  29 H29           -0.2141    -0.4106     1.9987 H       
  30 H30            0.3087     0.6469     4.4182 H       
  31 H31            2.5409     5.4266     4.2264 H       
  32 H32            1.5442     5.3543     6.5753 H       
  33 H33            0.5699     0.6133    -0.0618 H       
  34 H34            2.6890    -2.8794     1.5820 H       
  35 H35            1.5006    -2.5205    -0.6949 H       
  36 H36           -2.1425    -4.4857     1.5060 H       
  37 H37           -1.8559    -3.6333     3.0421 H       
  38 H38           -2.6507    -2.7899     1.6912 H       
  39 H39           -1.6642    -2.5445    -1.2965 H       
  40 H40           -2.3061    -1.5362     0.0225 H       
  41 H41           -1.0444    -0.8933    -1.0561 H       
  42 H42            3.0124    -1.1012    -1.3885 H       
  43 H43            1.3984    -0.7120    -2.0304 H       
  44 H44            4.6520     0.6456    -1.0065 H       
  45 H45            5.4511     2.8839    -1.6469 H       
  46 H46            1.5760     3.8181    -3.1884 H       
  47 H47            0.7876     1.5741    -2.5544 H       
  48 H48            2.6999     5.1394    -4.3626 H       
  49 H49            2.2169     5.7672    -2.7686 H       
  50 H50            3.5365     6.5500    -3.6709 H       
@<TRIPOS>BOND
   1    1    2 1
   2    1    3 2
   3    1    4 am
   4    2   10 1
   5    2   28 1
   6    2   29 1
   7    4    6 1
   8    4   30 1
   9    5    6 1
  10    5    9 1
  11    6    7 2
  12    7    8 1
  13    8    9 2
  14    8   31 1
  15    9   32 1
  16   10   12 1
  17   10   19 1
  18   10   33 1
  19   11   12 1
  20   11   15 am
  21   11   34 1
  22   12   13 1
  23   12   35 1
  24   13   14 2
  25   13   18 1
  26   14   15 1
  27   14   17 1
  28   15   16 2
  29   17   36 1
  30   17   37 1
  31   17   38 1
  32   18   39 1
  33   18   40 1
  34   18   41 1
  35   19   20 1
  36   19   42 1
  37   19   43 1
  38   20   21 ar
  39   20   25 ar
  40   21   22 ar
  41   21   44 1
  42   22   23 ar
  43   22   45 1
  44   23   24 ar
  45   23   26 1
  46   24   25 ar
  47   24   46 1
  48   25   47 1
  49   26   27 1
  50   27   48 1
  51   27   49 1
  52   27   50 1

#	End of record

