#	Name: ASD01916351
#	Creating user name:	WinNT
#	Creation time:	15. 06. 2019 20:07

#	Modifying user name:	WinNT
#	Modification time:	15. 06. 2019 20:07

#	Program:	/corina/corina34_cracker 3.40 0067  02.08.2006

@<TRIPOS>MOLECULE
ASD01916351
  31   33    0    0    0
SMALL
NO_CHARGES


@<TRIPOS>ATOM
   1 C1            -0.0308     1.5479    -0.0190 C.3     
   2 C2            -0.0182     0.0137    -0.0314 C.3     
   3 C3             0.6143    -0.4800    -1.3305 C.3     
   4 C4             1.9756     0.1224    -1.5341 C.ar    
   5 C5             2.3505     1.3163    -0.9077 C.ar    
   6 C6             1.4113     2.0142    -0.0188 C.2     
   7 N7             2.8505    -0.4783    -2.3220 N.ar    
   8 C8             4.0567     0.0387    -2.5175 C.ar    
   9 N9             4.4450     1.1700    -1.9419 N.ar    
  10 C10            3.6323     1.8326    -1.1394 C.ar    
  11 N11            4.9379    -0.6227    -3.3473 N.pl3   
  12 C12            6.1703    -0.0419    -3.6638 C.ar    
  13 O13            1.7764     2.9296     0.6884 O.2     
  14 C14            7.2929    -0.8418    -3.8346 C.ar    
  15 C15            8.5084    -0.2657    -4.1476 C.ar    
  16 C16            8.6085     1.1070    -4.2910 C.ar    
  17 C17            7.4916     1.9063    -4.1213 C.ar    
  18 C18            6.2725     1.3351    -3.8135 C.ar    
  19 Cl19          10.1382     1.8278    -4.6839 Cl      
  20 H20           -0.5406     1.9212    -0.9072 H       
  21 H21           -0.5363     1.9069     0.8775 H       
  22 H22            0.5612    -0.3516     0.8165 H       
  23 H23           -1.0402    -0.3586     0.0396 H       
  24 H24            0.7057    -1.5655    -1.2935 H       
  25 H25           -0.0273    -0.2046    -2.1675 H       
  26 H26            3.9488     2.7532    -0.6718 H       
  27 H27            4.7029    -1.4905    -3.7114 H       
  28 H28            7.2153    -1.9131    -3.7225 H       
  29 H29            9.3817    -0.8872    -4.2802 H       
  30 H30            7.5726     2.9774    -4.2338 H       
  31 H31            5.4011     1.9593    -3.6815 H       
@<TRIPOS>BOND
   1    1    2 1
   2    1    6 1
   3    1   20 1
   4    1   21 1
   5    2    3 1
   6    2   22 1
   7    2   23 1
   8    3    4 1
   9    3   24 1
  10    3   25 1
  11    4    5 ar
  12    4    7 ar
  13    5    6 1
  14    5   10 ar
  15    6   13 2
  16    7    8 ar
  17    8    9 ar
  18    8   11 1
  19    9   10 ar
  20   10   26 1
  21   11   12 1
  22   11   27 1
  23   12   14 ar
  24   12   18 ar
  25   14   15 ar
  26   14   28 1
  27   15   16 ar
  28   15   29 1
  29   16   17 ar
  30   16   19 1
  31   17   18 ar
  32   17   30 1
  33   18   31 1

#	End of record

