#	Name: ASD01915017
#	Creating user name:	WinNT
#	Creation time:	15. 06. 2019 20:04

#	Modifying user name:	WinNT
#	Modification time:	15. 06. 2019 20:04

#	Program:	/corina/corina34_cracker 3.40 0067  02.08.2006

@<TRIPOS>MOLECULE
ASD01915017
  36   37    0    0    0
SMALL
NO_CHARGES


@<TRIPOS>ATOM
   1 C1            -0.0032     1.4133     0.0131 C.ar    
   2 C2            -0.0121     0.0199     0.0130 C.ar    
   3 C3             1.1949    -0.6609    -0.0057 C.ar    
   4 C4             2.3693     0.0755    -0.0235 C.ar    
   5 C5             2.3033     1.4597    -0.0222 C.ar    
   6 N6             1.1442     2.0807    -0.0044 N.ar    
   7 C7            -1.2842     2.1557     0.0267 C.2     
   8 O8            -2.3354     1.5544    -0.0624 O.2     
   9 O9            -1.2835     3.4979     0.1379 O.3     
  10 C10            3.7047    -0.6225    -0.0436 C.3     
  11 O11            4.1065    -0.8433    -1.3971 O.3     
  12 C12            5.2977    -1.4673    -1.5931 C.ar    
  13 C13            5.7493    -1.7137    -2.8816 C.ar    
  14 C14            6.9606    -2.3482    -3.0782 C.ar    
  15 C15            7.7226    -2.7377    -1.9922 C.ar    
  16 C16            7.2745    -2.4938    -0.7071 C.ar    
  17 C17            6.0668    -1.8540    -0.5052 C.ar    
  18 C18           -1.3156    -0.7360     0.0333 C.3     
  19 C19           -1.8952    -0.7755    -1.3573 C.2     
  20 O20           -2.1753    -1.8348    -1.8648 O.2     
  21 C21           -2.5760     4.1595     0.1443 C.3     
  22 H22            1.2201    -1.7406    -0.0059 H       
  23 H23            3.2163     2.0364    -0.0361 H       
  24 H24            4.4466    -0.0020     0.4590 H       
  25 H25            3.6223    -1.5795     0.4716 H       
  26 H26            5.1543    -1.4099    -3.7301 H       
  27 H27            7.3124    -2.5405    -4.0810 H       
  28 H28            8.6693    -3.2337    -2.1480 H       
  29 H29            7.8712    -2.7996     0.1395 H       
  30 H30            5.7195    -1.6593     0.4987 H       
  31 H31           -1.1402    -1.7535     0.3828 H       
  32 H32           -2.0147    -0.2368     0.7043 H       
  33 H33           -2.0600     0.1437    -1.8998 H       
  34 H34           -2.4328     5.2359     0.2388 H       
  35 H35           -3.0997     3.9430    -0.7868 H       
  36 H36           -3.1659     3.7962     0.9858 H       
@<TRIPOS>BOND
   1    1    2 ar
   2    1    6 ar
   3    1    7 1
   4    2    3 ar
   5    2   18 1
   6    3    4 ar
   7    3   22 1
   8    4    5 ar
   9    4   10 1
  10    5    6 ar
  11    5   23 1
  12    7    8 2
  13    7    9 1
  14    9   21 1
  15   10   11 1
  16   10   24 1
  17   10   25 1
  18   11   12 1
  19   12   13 ar
  20   12   17 ar
  21   13   14 ar
  22   13   26 1
  23   14   15 ar
  24   14   27 1
  25   15   16 ar
  26   15   28 1
  27   16   17 ar
  28   16   29 1
  29   17   30 1
  30   18   19 1
  31   18   31 1
  32   18   32 1
  33   19   20 2
  34   19   33 1
  35   21   34 1
  36   21   35 1
  37   21   36 1

#	End of record

