#	Name: ASD01917841
#	Creating user name:	WinNT
#	Creation time:	15. 06. 2019 20:10

#	Modifying user name:	WinNT
#	Modification time:	15. 06. 2019 20:10

#	Program:	/corina/corina34_cracker 3.40 0067  02.08.2006

@<TRIPOS>MOLECULE
ASD01917841
  47   51    0    0    0
SMALL
NO_CHARGES


@<TRIPOS>ATOM
   1 C1             0.0180     1.2419    -0.1451 C.2     
   2 C2            -0.0116    -0.1037    -0.1224 C.2     
   3 C3            -1.3037    -0.9021    -0.0422 C.3     
   4 C4            -2.4221     0.0050     0.4762 C.3     
   5 N5            -2.3854     1.2805    -0.2550 N.am    
   6 C6            -1.1987     2.1367    -0.0834 C.3     
   7 C7            -3.4039     1.6536    -1.0549 C.2     
   8 O8            -4.3157     0.8820    -1.2775 O.2     
   9 S9             1.6926     1.7667    -0.2496 S.3     
  10 C10            2.2106     0.1379    -0.2493 C.2     
  11 N11            1.1956    -0.6496    -0.1785 N.2     
  12 C12            3.6474    -0.3107    -0.3218 C.3     
  13 O13            4.0263    -0.4763    -1.6897 O.3     
  14 C14            5.3009    -0.8805    -1.9323 C.ar    
  15 C15            5.7360    -1.0613    -3.2371 C.ar    
  16 C16            7.0322    -1.4723    -3.4811 C.ar    
  17 C17            7.8955    -1.7034    -2.4261 C.ar    
  18 C18            7.4641    -1.5244    -1.1247 C.ar    
  19 C19            6.1708    -1.1075    -0.8757 C.ar    
  20 C20           -3.4117     3.0054    -1.6632 C.ar    
  21 C21           -4.3886     3.3346    -2.6182 C.ar    
  22 N22           -4.4104     4.5268    -3.1676 N.ar    
  23 C23           -3.4959     5.4375    -2.8164 C.ar    
  24 C24           -2.5078     5.1072    -1.8508 C.ar    
  25 N25           -2.5029     3.8937    -1.2991 N.ar    
  26 C26           -3.4954     6.7211    -3.3888 C.ar    
  27 C27           -2.5528     7.6277    -3.0130 C.ar    
  28 C28           -1.5819     7.3043    -2.0653 C.ar    
  29 C29           -1.5493     6.0733    -1.4883 C.ar    
  30 H30           -1.5651    -1.2727    -1.0334 H       
  31 H31           -1.1710    -1.7426     0.6390 H       
  32 H32           -3.3862    -0.4783     0.3178 H       
  33 H33           -2.2769     0.1907     1.5404 H       
  34 H34           -1.2416     2.6399     0.8825 H       
  35 H35           -1.1553     2.8744    -0.8847 H       
  36 H36            4.2863     0.4396     0.1439 H       
  37 H37            3.7588    -1.2593     0.2035 H       
  38 H38            5.0619    -0.8813    -4.0615 H       
  39 H39            7.3713    -1.6135    -4.4967 H       
  40 H40            8.9085    -2.0247    -2.6189 H       
  41 H41            8.1402    -1.7062    -0.3024 H       
  42 H42            5.8343    -0.9678     0.1410 H       
  43 H43           -5.1277     2.6004    -2.9030 H       
  44 H44           -4.2401     6.9868    -4.1245 H       
  45 H45           -2.5564     8.6129    -3.4556 H       
  46 H46           -0.8449     8.0425    -1.7855 H       
  47 H47           -0.7914     5.8373    -0.7560 H       
@<TRIPOS>BOND
   1    1    2 2
   2    1    9 1
   3    1    6 1
   4    2    3 1
   5    2   11 1
   6    3    4 1
   7    3   30 1
   8    3   31 1
   9    4    5 1
  10    4   32 1
  11    4   33 1
  12    5    6 1
  13    5    7 am
  14    6   34 1
  15    6   35 1
  16    7    8 2
  17    7   20 1
  18    9   10 1
  19   10   11 2
  20   10   12 1
  21   12   13 1
  22   12   36 1
  23   12   37 1
  24   13   14 1
  25   14   15 ar
  26   14   19 ar
  27   15   16 ar
  28   15   38 1
  29   16   17 ar
  30   16   39 1
  31   17   18 ar
  32   17   40 1
  33   18   19 ar
  34   18   41 1
  35   19   42 1
  36   20   21 ar
  37   20   25 ar
  38   21   22 ar
  39   21   43 1
  40   22   23 ar
  41   23   24 ar
  42   23   26 ar
  43   24   25 ar
  44   24   29 ar
  45   26   27 ar
  46   26   44 1
  47   27   28 ar
  48   27   45 1
  49   28   29 ar
  50   28   46 1
  51   29   47 1

#	End of record

