#	Name: ASD03331382
#	Creating user name:	WinNT
#	Creation time:	15. 06. 2019 20:39

#	Modifying user name:	WinNT
#	Modification time:	15. 06. 2019 20:39

#	Program:	/corina/corina34_cracker 3.40 0067  02.08.2006

@<TRIPOS>MOLECULE
ASD03331382
  57   59    0    0    0
SMALL
NO_CHARGES


@<TRIPOS>ATOM
   1 N1             0.3307     0.8038    -0.3580 N.2     
   2 N2             0.1694    -0.5866    -0.2485 N.am    
   3 C3             1.4000    -1.1491    -0.2679 C.2     
   4 C4             2.3131    -0.1536    -0.3836 C.2     
   5 C5             1.6201     1.0648    -0.4395 C.2     
   6 C6             3.8000    -0.4008    -0.4342 C.3     
   7 C7             1.7830    -2.6063    -0.1841 C.3     
   8 C8             3.2425    -2.7330    -0.6453 C.3     
   9 O9             4.0408    -1.7432     0.0093 O.3     
  10 C10           -1.0024    -1.2439    -0.1424 C.2     
  11 O11           -1.0134    -2.4555    -0.0529 O.2     
  12 N12           -2.1621    -0.5571    -0.1355 N.am    
  13 C13            2.2313     2.4108    -0.5678 C.ar    
  14 C14            1.5866     3.4036    -1.3034 C.ar    
  15 C15            2.1595     4.6553    -1.4200 C.ar    
  16 C16            3.3750     4.9232    -0.8062 C.ar    
  17 C17            4.0175     3.9383    -0.0753 C.ar    
  18 C18            3.4483     2.6872     0.0515 C.ar    
  19 F19            3.9330     6.1481    -0.9225 F       
  20 F20            1.5362     5.6191    -2.1326 F       
  21 C21           -4.5351    -0.4403    -0.6297 C.2     
  22 C22           -3.4358    -1.2716    -0.0202 C.3     
  23 C23           -3.7468    -1.5247     1.4564 C.3     
  24 C24           -3.8455    -0.1874     2.1932 C.3     
  25 O25           -4.3757     0.7511    -0.7915 O.2     
  26 C26           -5.0761    -2.2726     1.5767 C.3     
  27 C27           -2.6298    -2.3670     2.0757 C.3     
  28 N28           -5.6953    -1.0207    -0.9950 N.am    
  29 C29           -6.7958    -0.1999    -1.5064 C.3     
  30 C30           -7.9872    -1.0981    -1.8452 C.3     
  31 C31           -9.0930    -0.2734    -2.3590 C.1     
  32 N32           -9.9463     0.3630    -2.7556 N.1     
  33 H33            4.1590    -0.2803    -1.4563 H       
  34 H34            4.3129     0.3019     0.2224 H       
  35 H35            1.6890    -2.9544     0.8445 H       
  36 H36            1.1374    -3.1959    -0.8350 H       
  37 H37            3.6173    -3.7254    -0.3946 H       
  38 H38            3.2961    -2.5873    -1.7241 H       
  39 H39           -2.1534     0.4102    -0.2069 H       
  40 H40            0.6410     3.1947    -1.7816 H       
  41 H41            4.9635     4.1508     0.4005 H       
  42 H42            3.9485     1.9216     0.6259 H       
  43 H43           -3.3669    -2.2242    -0.5454 H       
  44 H44           -4.6413     0.4127     1.7520 H       
  45 H45           -4.0670    -0.3677     3.2451 H       
  46 H46           -2.8985     0.3454     2.1075 H       
  47 H47           -5.0008    -3.2321     1.0650 H       
  48 H48           -5.3053    -2.4392     2.6292 H       
  49 H49           -5.8692    -1.6794     1.1216 H       
  50 H50           -1.6828    -1.8342     1.9900 H       
  51 H51           -2.8513    -2.5473     3.1276 H       
  52 H52           -2.5595    -3.3197     1.5507 H       
  53 H53           -5.8017    -1.9819    -0.9193 H       
  54 H54           -7.0914     0.5249    -0.7479 H       
  55 H55           -6.4703     0.3258    -2.4040 H       
  56 H56           -7.6917    -1.8230    -2.6037 H       
  57 H57           -8.3127    -1.6238    -0.9475 H       
@<TRIPOS>BOND
   1    1    2 1
   2    1    5 2
   3    2    3 1
   4    2   10 am
   5    3    4 2
   6    3    7 1
   7    4    5 1
   8    4    6 1
   9    5   13 1
  10    6    9 1
  11    6   33 1
  12    6   34 1
  13    7    8 1
  14    7   35 1
  15    7   36 1
  16    8    9 1
  17    8   37 1
  18    8   38 1
  19   10   11 2
  20   10   12 am
  21   12   22 1
  22   12   39 1
  23   13   14 ar
  24   13   18 ar
  25   14   15 ar
  26   14   40 1
  27   15   16 ar
  28   15   20 1
  29   16   17 ar
  30   16   19 1
  31   17   18 ar
  32   17   41 1
  33   18   42 1
  34   21   25 2
  35   21   28 am
  36   21   22 1
  37   22   23 1
  38   22   43 1
  39   23   24 1
  40   23   26 1
  41   23   27 1
  42   24   44 1
  43   24   45 1
  44   24   46 1
  45   26   47 1
  46   26   48 1
  47   26   49 1
  48   27   50 1
  49   27   51 1
  50   27   52 1
  51   28   29 1
  52   28   53 1
  53   29   30 1
  54   29   54 1
  55   29   55 1
  56   30   31 1
  57   30   56 1
  58   30   57 1
  59   31   32 3

#	End of record

