#	Name: ASD00451007
#	Creating user name:	WinNT
#	Creation time:	15. 06. 2019 18:36

#	Modifying user name:	WinNT
#	Modification time:	15. 06. 2019 18:36

#	Program:	/corina/corina34_cracker 3.40 0067  02.08.2006

@<TRIPOS>MOLECULE
ASD00451007
  49   52    0    0    0
SMALL
NO_CHARGES


@<TRIPOS>ATOM
   1 C1            -0.1170     1.5371     0.0316 C.ar    
   2 C2            -0.1945     0.1529     0.0157 C.ar    
   3 N3             1.1343     2.1710    -0.0125 N.am    
   4 C4            -1.2827     2.2982     0.0856 C.ar    
   5 C5            -1.4267    -0.4717     0.0582 C.ar    
   6 C6             2.1890     1.5424    -0.5683 C.2     
   7 C7            -2.5160     1.6699     0.1233 C.ar    
   8 C8            -2.5882     0.2843     0.1169 C.ar    
   9 O9             2.0750     0.3988    -0.9654 O.2     
  10 N10            3.3700     2.1814    -0.6840 N.am    
  11 O11           -3.7990    -0.3328     0.1534 O.3     
  12 C12            4.4972     1.4909    -1.1446 C.ar    
  13 C13           -4.1901    -0.9007     1.3232 C.ar    
  14 C14            5.5257     2.1796    -1.7735 C.ar    
  15 C15            4.5913     0.1165    -0.9683 C.ar    
  16 C16           -5.4563    -1.4647     1.4572 C.ar    
  17 C17           -3.3338    -0.9407     2.4214 C.ar    
  18 C18            6.6369     1.4959    -2.2272 C.ar    
  19 C19            5.7043    -0.5623    -1.4237 C.ar    
  20 N20           -6.5423    -1.6074     0.5959 N.am    
  21 C21           -5.8230    -2.0397     2.6743 C.ar    
  22 C22           -3.7672    -1.5271     3.5935 C.ar    
  23 C23            6.7253     0.1258    -2.0558 C.ar    
  24 C24           -7.5257    -2.2419     1.2624 C.2     
  25 N25           -7.1209    -2.5099     2.5178 N.am    
  26 N26           -4.9752    -2.0489     3.6918 N.ar    
  27 Cl27           8.1229    -0.7306    -2.6277 Cl      
  28 O28           -8.6162    -2.5239     0.8020 O.2     
  29 H29            1.2401     3.0616     0.3570 H       
  30 H30            3.4389     3.1197    -0.4480 H       
  31 H31           -6.5829    -1.3026    -0.3241 H       
  32 H32           -7.6455    -2.9611     3.1977 H       
  33 O33           -1.2093     3.6559     0.1018 O.3     
  34 C34           -2.4448     4.3717     0.1578 C.3     
  35 C35            7.7536     2.2428    -2.9100 C.3     
  36 F36            7.4380     3.6046    -2.9657 F       
  37 F37            8.9401     2.0682    -2.1896 F       
  38 F38            7.9194     1.7490    -4.2084 F       
  39 H39            0.7086    -0.4377    -0.0303 H       
  40 H40           -1.4854    -1.5500     0.0454 H       
  41 H41           -3.4209     2.2580     0.1652 H       
  42 H42            5.4568     3.2490    -1.9082 H       
  43 H43            3.7948    -0.4208    -0.4751 H       
  44 H44           -2.3421    -0.5182     2.3563 H       
  45 H45            5.7779    -1.6310    -1.2868 H       
  46 H46           -3.1050    -1.5596     4.4461 H       
  47 H47           -3.0496     4.1214    -0.7139 H       
  48 H48           -2.9833     4.0967     1.0647 H       
  49 H49           -2.2440     5.4430     0.1652 H       
@<TRIPOS>BOND
   1    1    2 ar
   2    1    3 1
   3    1    4 ar
   4    2    5 ar
   5    2   39 1
   6    3   29 1
   7    3    6 am
   8    4   33 1
   9    4    7 ar
  10    5    8 ar
  11    5   40 1
  12    6    9 2
  13    6   10 am
  14    7    8 ar
  15    7   41 1
  16    8   11 1
  17   10   12 1
  18   10   30 1
  19   11   13 1
  20   12   14 ar
  21   12   15 ar
  22   13   16 ar
  23   13   17 ar
  24   14   18 ar
  25   14   42 1
  26   15   19 ar
  27   15   43 1
  28   16   20 1
  29   16   21 ar
  30   17   22 ar
  31   17   44 1
  32   18   23 ar
  33   18   35 1
  34   19   23 ar
  35   19   45 1
  36   20   31 1
  37   20   24 am
  38   21   26 ar
  39   21   25 1
  40   22   26 ar
  41   22   46 1
  42   23   27 1
  43   24   25 am
  44   24   28 2
  45   25   32 1
  46   33   34 1
  47   34   47 1
  48   34   48 1
  49   34   49 1
  50   35   36 1
  51   35   37 1
  52   35   38 1

#	End of record

