#	Name: ASD02198739
#	Creating user name:	WinNT
#	Creation time:	15. 06. 2019 20:20

#	Modifying user name:	WinNT
#	Modification time:	15. 06. 2019 20:20

#	Program:	/corina/corina34_cracker 3.40 0067  02.08.2006

@<TRIPOS>MOLECULE
ASD02198739
  46   50    0    0    0
SMALL
NO_CHARGES


@<TRIPOS>ATOM
   1 F1             2.2519    -1.7120     2.4723 F       
   2 C2            -0.0433     1.5019    -0.1150 C.2     
   3 C3            -0.0731     0.1621     0.0975 C.2     
   4 N4             1.0712    -0.5395     0.2603 N.pl3   
   5 N5             2.2357    -0.0047     0.2267 N.2     
   6 C6             2.4073     1.2846     0.0281 C.2     
   7 C7             1.2216     2.1358    -0.1604 C.2     
   8 C8             0.9795    -1.9186     0.4768 C.ar    
   9 C9             1.5799    -2.4892     1.5951 C.ar    
  10 C10            1.4884    -3.8519     1.8074 C.ar    
  11 C11            0.7980    -4.6499     0.9052 C.ar    
  12 C12            0.1990    -4.0796    -0.2109 C.ar    
  13 C13            0.2843    -2.7186    -0.4215 C.ar    
  14 C14            3.7643     1.8669    -0.0040 C.2     
  15 N15            4.3067     2.6067    -1.0171 N.pl3   
  16 N16            5.6086     2.9580    -0.6390 N.2     
  17 C17            5.8519     2.4585     0.5465 C.2     
  18 C18            4.7195     1.7716     0.9841 C.2     
  19 C19            3.6741     2.9513    -2.2183 C.ar    
  20 C20            3.8083     4.2343    -2.7322 C.ar    
  21 C21            3.1832     4.5710    -3.9169 C.ar    
  22 C22            2.4244     3.6320    -4.5912 C.ar    
  23 C23            2.2885     2.3536    -4.0818 C.ar    
  24 C24            2.9161     2.0089    -2.9008 C.ar    
  25 O25            1.3246     3.3389    -0.3487 O.2     
  26 N26            0.7056    -6.0321     1.1204 N.pl3   
  27 C27            1.2430    -6.7112     2.1763 C.2     
  28 C28            0.0584    -6.9224     0.3120 C.2     
  29 C29            0.1903    -8.1522     0.8492 C.2     
  30 C30            0.9427    -8.0181     2.0334 C.2     
  31 H31           -0.9546     2.0655    -0.2495 H       
  32 H32           -1.0229    -0.3503     0.1375 H       
  33 H33            1.9542    -4.2959     2.6748 H       
  34 H34           -0.3379    -4.7014    -0.9120 H       
  35 H35           -0.1817    -2.2763    -1.2896 H       
  36 H36            6.7754     2.5643     1.0964 H       
  37 H37            4.6134     1.2522     1.9250 H       
  38 H38            4.4005     4.9683    -2.2059 H       
  39 H39            3.2869     5.5688    -4.3169 H       
  40 H40            1.9366     3.8977    -5.5174 H       
  41 H41            1.6946     1.6226    -4.6104 H       
  42 H42            2.8095     1.0103    -2.5035 H       
  43 H43            1.8107    -6.2767     2.9859 H       
  44 H44           -0.4684    -6.6828    -0.5999 H       
  45 H45           -0.2101    -9.0713     0.4474 H       
  46 H46            1.2274    -8.8160     2.7033 H       
@<TRIPOS>BOND
   1    1    9 1
   2    2    3 2
   3    2    7 1
   4    2   31 1
   5    3    4 1
   6    3   32 1
   7    4    5 1
   8    4    8 1
   9    5    6 2
  10    6    7 1
  11    6   14 1
  12    7   25 2
  13    8    9 ar
  14    8   13 ar
  15    9   10 ar
  16   10   11 ar
  17   10   33 1
  18   11   12 ar
  19   11   26 1
  20   12   13 ar
  21   12   34 1
  22   13   35 1
  23   14   15 1
  24   14   18 2
  25   15   16 1
  26   15   19 1
  27   16   17 2
  28   17   18 1
  29   17   36 1
  30   18   37 1
  31   19   20 ar
  32   19   24 ar
  33   20   21 ar
  34   20   38 1
  35   21   22 ar
  36   21   39 1
  37   22   23 ar
  38   22   40 1
  39   23   24 ar
  40   23   41 1
  41   24   42 1
  42   26   28 1
  43   26   27 1
  44   27   30 2
  45   27   43 1
  46   28   29 2
  47   28   44 1
  48   29   30 1
  49   29   45 1
  50   30   46 1

#	End of record

