#	Name: ASD01815567
#	Creating user name:	WinNT
#	Creation time:	15. 06. 2019 19:33

#	Modifying user name:	WinNT
#	Modification time:	15. 06. 2019 19:33

#	Program:	/corina/corina34_cracker 3.40 0067  02.08.2006

@<TRIPOS>MOLECULE
ASD01815567
  37   38    0    0    0
SMALL
NO_CHARGES


@<TRIPOS>ATOM
   1 C1             0.1039     1.4768     0.3827 C.ar    
   2 C2             0.0847     0.0906     0.3744 C.ar    
   3 C3             1.2533    -0.6303     0.2349 C.ar    
   4 C4             2.4706     0.0348     0.1008 C.ar    
   5 C5             2.4885     1.4400     0.1094 C.ar    
   6 C6             1.2979     2.1572     0.2510 C.ar    
   7 N7             3.6449    -0.6752    -0.0383 N.pl3   
   8 C8             4.8382    -0.0848    -0.1693 C.2     
   9 C9             4.9827     1.2898    -0.1754 C.2     
  10 C10            3.7822     2.1314    -0.0332 C.2     
  11 F11            1.2172    -1.9808     0.2288 F       
  12 F12            1.3150     3.5080     0.2589 F       
  13 O13            3.8557     3.3476    -0.0328 O.2     
  14 C14            6.3084     1.8998    -0.3204 C.2     
  15 O15            7.2991     1.1904    -0.4374 O.co2   
  16 C16            3.5828    -2.1389    -0.0423 C.3     
  17 C17            3.4389    -2.6317    -1.4591 C.ar    
  18 C18            4.5580    -2.7767    -2.2575 C.ar    
  19 C19            4.4260    -3.2287    -3.5572 C.ar    
  20 C20            3.1749    -3.5362    -4.0583 C.ar    
  21 C21            2.0559    -3.3922    -3.2596 C.ar    
  22 C22            2.1884    -2.9443    -1.9585 C.ar    
  23 C23            3.0309    -4.0281    -5.4755 C.3     
  24 F24            3.1248    -5.4238    -5.4965 F       
  25 F25            1.7864    -3.6367    -5.9807 F       
  26 F26            4.0478    -3.4803    -6.2648 F       
  27 O27            6.4242     3.1184    -0.3244 O.co2   
  28 H28           -0.8196     2.0268     0.4883 H       
  29 H29           -0.8552    -0.4310     0.4786 H       
  30 H30            5.7179    -0.7027    -0.2735 H       
  31 H31            4.4976    -2.5426     0.3917 H       
  32 H32            2.7259    -2.4678     0.5456 H       
  33 H33            5.5355    -2.5364    -1.8660 H       
  34 H34            5.3003    -3.3412    -4.1812 H       
  35 H35            1.0784    -3.6321    -3.6512 H       
  36 H36            1.3141    -2.8318    -1.3345 H       
  37 Na37          12.2991     8.5080     5.5456 Du      
@<TRIPOS>BOND
   1    1    2 ar
   2    1    6 ar
   3    1   28 1
   4    2    3 ar
   5    2   29 1
   6    3    4 ar
   7    3   11 1
   8    4    5 ar
   9    4    7 1
  10    5    6 ar
  11    5   10 1
  12    6   12 1
  13    7    8 1
  14    7   16 1
  15    8    9 2
  16    8   30 1
  17    9   10 1
  18    9   14 1
  19   10   13 2
  20   14   15 ar
  21   14   27 ar
  22   16   17 1
  23   16   31 1
  24   16   32 1
  25   17   18 ar
  26   17   22 ar
  27   18   19 ar
  28   18   33 1
  29   19   20 ar
  30   19   34 1
  31   20   21 ar
  32   20   23 1
  33   21   22 ar
  34   21   35 1
  35   22   36 1
  36   23   24 1
  37   23   25 1
  38   23   26 1

#	End of record

