#	Name: ASD01140236
#	Creating user name:	WinNT
#	Creation time:	15. 06. 2019 19:00

#	Modifying user name:	WinNT
#	Modification time:	15. 06. 2019 19:00

#	Program:	/corina/corina34_cracker 3.40 0067  02.08.2006

@<TRIPOS>MOLECULE
ASD01140236
  75   82    0    0    0
SMALL
NO_CHARGES


@<TRIPOS>ATOM
   1 C1            -0.2688     1.4379    -0.0091 C.2     
   2 C2            -0.4258     0.0930     0.1062 C.2     
   3 S3             1.1318    -0.7039    -0.0353 S.3     
   4 C4             1.9573     0.8405    -0.2324 C.2     
   5 C5             1.0302     1.8664    -0.2077 C.2     
   6 C6             3.4074     0.9946    -0.3708 C.2     
   7 N7             4.0112     1.8545    -1.1318 N.2     
   8 C8             3.2780     2.7418    -2.0378 C.3     
   9 C9             2.3761     3.6364    -1.2299 C.2     
  10 N10            1.3785     3.2201    -0.4128 N.pl3   
  11 C11           -1.6758    -0.5746     0.3125 C.1     
  12 C12            0.8037     4.3153     0.1408 C.2     
  13 C13            2.3936     4.9969    -1.1693 C.2     
  14 N14            1.4090     5.3783    -0.3124 N.2     
  15 C15            4.1717    12.1872    -5.1322 C.2     
  16 N16            3.9449    13.1134    -4.1618 N.2     
  17 C17            4.8886    12.7973    -6.1167 C.2     
  18 N18            5.0808    14.0798    -5.7252 N.pl3   
  19 C19            4.4893    14.2446    -4.5172 C.2     
  20 C20            5.3858    12.1883    -7.4007 C.3     
  21 N21            6.8478    12.2690    -7.4362 N.2     
  22 C22            7.4762    13.4052    -7.4228 C.2     
  23 C23            6.8591    14.7274    -7.2917 C.2     
  24 C24            5.7831    15.0434    -6.4819 C.2     
  25 S25            7.3942    16.1695    -8.1513 S.3     
  26 C26            6.1873    17.1557    -7.3436 C.2     
  27 C27            5.4434    16.3833    -6.5076 C.2     
  28 C28            6.0127    18.5639    -7.5359 C.1     
  29 C29            2.6243     8.9150    -4.1236 C.3     
  30 C30           -2.7005    -1.1219     0.4816 C.1     
  31 C31            5.8695    19.7185    -7.6935 C.1     
  32 C32            4.1485     8.0452    -2.4910 C.3     
  33 C33            8.9523    13.3604    -7.5523 C.ar    
  34 C34            9.5705    12.2548    -8.1348 C.ar    
  35 C35           10.9448    12.2190    -8.2531 C.ar    
  36 C36           11.7091    13.2770    -7.7946 C.ar    
  37 C37           11.1013    14.3766    -7.2156 C.ar    
  38 C38            9.7274    14.4263    -7.0972 C.ar    
  39 C39            4.2619     0.0867     0.4313 C.ar    
  40 C40            5.5740    -0.1702     0.0361 C.ar    
  41 C41            6.3648    -1.0158     0.7870 C.ar    
  42 C42            5.8578    -1.6085     1.9296 C.ar    
  43 C43            4.5567    -1.3573     2.3267 C.ar    
  44 C44            3.7583    -0.5089     1.5870 C.ar    
  45 O45            3.7559     8.0816    -3.8645 O.3     
  46 C46            3.7296    10.7837    -5.1180 C.2     
  47 O47            3.0274    10.3089    -4.0699 O.3     
  48 O48            3.9977    10.0526    -6.0512 O.2     
  49 C49            3.3089     5.8899    -1.8973 C.2     
  50 O50            3.2131     7.2255    -1.7418 O.3     
  51 O51            4.1514     5.4234    -2.6389 O.2     
  52 H52           -1.1013     2.1236     0.0459 H       
  53 H53            3.9843     3.3506    -2.6022 H       
  54 H54            2.6785     2.1456    -2.7257 H       
  55 H55           -0.0191     4.3091     0.8404 H       
  56 H56            4.4716    15.1598    -3.9441 H       
  57 H57            5.0773    11.1442    -7.4522 H       
  58 H58            4.9702    12.7342    -8.2477 H       
  59 H59            4.6430    16.7879    -5.9059 H       
  60 H60            2.2262     8.6898    -5.1130 H       
  61 H61            1.8568     8.7295    -3.3722 H       
  62 H62           -3.6171    -1.6115     0.6329 H       
  63 H63            5.7415    20.7511    -7.8345 H       
  64 H64            5.1492     7.6206    -2.4103 H       
  65 H65            4.1496     9.0573    -2.0864 H       
  66 H66            8.9748    11.4279    -8.4925 H       
  67 H67           11.4248    11.3631    -8.7042 H       
  68 H68           12.7845    13.2442    -7.8886 H       
  69 H69           11.7031    15.1995    -6.8591 H       
  70 H70            9.2540    15.2854    -6.6454 H       
  71 H71            5.9706     0.2914    -0.8561 H       
  72 H72            7.3813    -1.2156     0.4819 H       
  73 H73            6.4802    -2.2702     2.5138 H       
  74 H74            4.1662    -1.8231     3.2194 H       
  75 H75            2.7427    -0.3133     1.8980 H       
@<TRIPOS>BOND
   1    1    2 2
   2    1    5 1
   3    1   52 1
   4    2    3 1
   5    2   11 1
   6    3    4 1
   7    4    5 2
   8    4    6 1
   9    5   10 1
  10    6    7 2
  11    6   39 1
  12    7    8 1
  13    8    9 1
  14    8   53 1
  15    8   54 1
  16    9   10 1
  17    9   13 2
  18   10   12 1
  19   11   30 3
  20   12   14 2
  21   12   55 1
  22   13   14 1
  23   13   49 1
  24   15   16 1
  25   15   17 2
  26   15   46 1
  27   16   19 2
  28   17   18 1
  29   17   20 1
  30   18   19 1
  31   18   24 1
  32   19   56 1
  33   20   21 1
  34   20   57 1
  35   20   58 1
  36   21   22 2
  37   22   23 1
  38   22   33 1
  39   23   24 2
  40   23   25 1
  41   24   27 1
  42   25   26 1
  43   26   27 2
  44   26   28 1
  45   27   59 1
  46   28   31 3
  47   29   47 1
  48   29   45 1
  49   29   60 1
  50   29   61 1
  51   30   62 1
  52   31   63 1
  53   32   45 1
  54   32   50 1
  55   32   64 1
  56   32   65 1
  57   33   34 ar
  58   33   38 ar
  59   34   35 ar
  60   34   66 1
  61   35   36 ar
  62   35   67 1
  63   36   37 ar
  64   36   68 1
  65   37   38 ar
  66   37   69 1
  67   38   70 1
  68   39   40 ar
  69   39   44 ar
  70   40   41 ar
  71   40   71 1
  72   41   42 ar
  73   41   72 1
  74   42   43 ar
  75   42   73 1
  76   43   44 ar
  77   43   74 1
  78   44   75 1
  79   46   47 1
  80   46   48 2
  81   49   50 1
  82   49   51 2

#	End of record

