#	Name: ASD03470032
#	Creating user name:	WinNT
#	Creation time:	15. 06. 2019 20:42

#	Modifying user name:	WinNT
#	Modification time:	15. 06. 2019 20:42

#	Program:	/corina/corina34_cracker 3.40 0067  02.08.2006

@<TRIPOS>MOLECULE
ASD03470032
  36   39    0    0    0
SMALL
NO_CHARGES


@<TRIPOS>ATOM
   1 Cl1           -1.2236    -0.5754     0.9187 Cl      
   2 C2             0.3379     1.6142     0.6258 C.ar    
   3 C3             0.2901     0.2315     0.6512 C.ar    
   4 C4             1.4402    -0.5099     0.4652 C.ar    
   5 C5             2.6582     0.1312     0.2505 C.ar    
   6 C6             2.6925     1.5202     0.2274 C.ar    
   7 C7             1.5450     2.2573     0.4129 C.ar    
   8 C8             4.1325     1.9056    -0.0218 C.3     
   9 C9             4.8554     0.5797    -0.1280 C.2     
  10 O10            6.0410     0.4195    -0.3276 O.2     
  11 N11            3.9367    -0.3864     0.0399 N.am    
  12 C12            4.2425    -1.8187     0.0063 C.3     
  13 C13            4.1641    -2.3159    -1.4141 C.ar    
  14 C14            3.7317    -1.4747    -2.4158 C.ar    
  15 C15            3.6565    -1.9240    -3.7237 C.ar    
  16 C16            4.0148    -3.2238    -4.0395 C.ar    
  17 C17            4.4541    -4.0859    -3.0381 C.ar    
  18 C18            4.5356    -3.6295    -1.7168 C.ar    
  19 C19            5.0046    -4.5313    -0.6492 C.2     
  20 O20            4.2061    -5.2045    -0.0283 O.2     
  21 O21            6.3189    -4.6091    -0.3620 O.3     
  22 O22            4.7428    -5.2940    -3.5967 O.3     
  23 C23            4.8665    -5.0455    -5.0095 C.3     
  24 O24            4.0290    -3.8948    -5.2285 O.3     
  25 H25           -0.5648     2.1900     0.7673 H       
  26 H26            1.3954    -1.5888     0.4866 H       
  27 H27            1.5863     3.3363     0.3921 H       
  28 H28            4.2224     2.4652    -0.9529 H       
  29 H29            4.5222     2.4872     0.8136 H       
  30 H30            5.2473    -1.9849     0.3946 H       
  31 H31            3.5217    -2.3586     0.6205 H       
  32 H32            3.4496    -0.4592    -2.1798 H       
  33 H33            3.3159    -1.2570    -4.5018 H       
  34 H34            6.5838    -5.2500     0.3119 H       
  35 H35            5.9010    -4.8214    -5.2699 H       
  36 H36            4.5026    -5.8987    -5.5819 H       
@<TRIPOS>BOND
   1    1    3 1
   2    2    3 ar
   3    2    7 ar
   4    2   25 1
   5    3    4 ar
   6    4    5 ar
   7    4   26 1
   8    5    6 ar
   9    5   11 1
  10    6    7 ar
  11    6    8 1
  12    7   27 1
  13    8    9 1
  14    8   28 1
  15    8   29 1
  16    9   10 2
  17    9   11 am
  18   11   12 1
  19   12   13 1
  20   12   30 1
  21   12   31 1
  22   13   14 ar
  23   13   18 ar
  24   14   15 ar
  25   14   32 1
  26   15   16 ar
  27   15   33 1
  28   16   17 ar
  29   16   24 1
  30   17   18 ar
  31   17   22 1
  32   18   19 1
  33   19   20 2
  34   19   21 1
  35   21   34 1
  36   22   23 1
  37   23   24 1
  38   23   35 1
  39   23   36 1

#	End of record

