#	Name: ASD01914187
#	Creating user name:	WinNT
#	Creation time:	15. 06. 2019 20:03

#	Modifying user name:	WinNT
#	Modification time:	15. 06. 2019 20:03

#	Program:	/corina/corina34_cracker 3.40 0067  02.08.2006

@<TRIPOS>MOLECULE
ASD01914187
  29   30    0    0    0
SMALL
NO_CHARGES


@<TRIPOS>ATOM
   1 C1            -0.0170     1.4011     0.0097 C.2     
   2 C2             0.0021    -0.0041     0.0020 C.2     
   3 C3             1.2004    -0.6554    -0.0129 C.2     
   4 C4             2.3866     0.0918    -0.0202 C.2     
   5 C5             2.3333     1.4442    -0.0124 C.2     
   6 N6             1.1396     2.0908     0.0024 N.am    
   7 O7            -1.0824     1.9967     0.0180 O.2     
   8 C8             1.1094     3.5555     0.0100 C.3     
   9 C9             1.1123     4.0581     1.4551 C.3     
  10 C10            1.0820     5.5298     1.4628 C.1     
  11 C11            1.0578     6.7035     1.4689 C.1     
  12 C12            1.0283     8.1352     1.4764 C.ar    
  13 C13            1.0253     8.8213     2.6915 C.ar    
  14 C14            0.9966    10.2045     2.6819 C.ar    
  15 C15            0.9718    10.8586     1.4578 C.ar    
  16 C16            0.9764    10.1164     0.2913 C.ar    
  17 N17            1.0094     8.7999     0.3268 N.ar    
  18 H18           -0.9224    -0.5624     0.0082 H       
  19 H19            1.2351    -1.7349    -0.0187 H       
  20 H20            3.3422    -0.4113    -0.0316 H       
  21 H21            3.2500     2.0151    -0.0181 H       
  22 H22            1.9868     3.9397    -0.5101 H       
  23 H23            0.2073     3.9029    -0.4936 H       
  24 H24            0.2349     3.6739     1.9753 H       
  25 H25            2.0144     3.7107     1.9588 H       
  26 H26            1.0448     8.2803     3.6260 H       
  27 H27            0.9933    10.7629     3.6063 H       
  28 H28            0.9488    11.9376     1.4170 H       
  29 H29            0.9567    10.6230    -0.6623 H       
@<TRIPOS>BOND
   1    1    2 1
   2    1    6 am
   3    1    7 2
   4    2    3 2
   5    2   18 1
   6    3    4 1
   7    3   19 1
   8    4    5 2
   9    4   20 1
  10    5    6 1
  11    5   21 1
  12    6    8 1
  13    8    9 1
  14    8   22 1
  15    8   23 1
  16    9   10 1
  17    9   24 1
  18    9   25 1
  19   10   11 3
  20   11   12 1
  21   12   13 ar
  22   12   17 ar
  23   13   14 ar
  24   13   26 1
  25   14   15 ar
  26   14   27 1
  27   15   16 ar
  28   15   28 1
  29   16   17 ar
  30   16   29 1

#	End of record

