#	Name: ASD01881993
#	Creating user name:	WinNT
#	Creation time:	15. 06. 2019 19:43

#	Modifying user name:	WinNT
#	Modification time:	15. 06. 2019 19:43

#	Program:	/corina/corina34_cracker 3.40 0067  02.08.2006

@<TRIPOS>MOLECULE
ASD01881993
  24   24    0    0    0
SMALL
NO_CHARGES


@<TRIPOS>ATOM
   1 C1            -0.0184     1.5028     0.0103 C.2     
   2 C2             0.0021    -0.0041     0.0020 C.3     
   3 O3             1.0236     2.1234     0.0037 O.2     
   4 N4            -1.1946     2.1607     0.0195 N.am    
   5 N5             1.3935    -0.4748    -0.0138 N.3     
   6 C6             1.4526    -1.9426    -0.0222 C.3     
   7 C7             2.8924    -2.3873    -0.0384 C.ar    
   8 C8             3.5640    -2.5976     1.1515 C.ar    
   9 C9             4.8845    -3.0059     1.1372 C.ar    
  10 C10            5.5339    -3.2041    -0.0680 C.ar    
  11 C11            4.8614    -2.9935    -1.2583 C.ar    
  12 C12            3.5395    -2.5903    -1.2430 C.ar    
  13 Br13           7.3406    -3.7621    -0.0882 Br      
  14 H14           -0.4983    -0.3791     0.8948 H       
  15 H15           -0.5153    -0.3696    -0.8850 H       
  16 H16           -2.0280     1.6644     0.0207 H       
  17 H17           -1.2077     3.1306     0.0248 H       
  18 H18            1.8972    -0.0881    -0.7979 H       
  19 H19            0.9623    -2.3311     0.8704 H       
  20 H20            0.9453    -2.3216    -0.9095 H       
  21 H21            3.0570    -2.4425     2.0924 H       
  22 H22            5.4092    -3.1699     2.0668 H       
  23 H23            5.3682    -3.1477    -2.1995 H       
  24 H24            3.0131    -2.4298    -2.1724 H       
@<TRIPOS>BOND
   1    1    2 1
   2    1    3 2
   3    1    4 am
   4    2    5 1
   5    2   14 1
   6    2   15 1
   7    4   16 1
   8    4   17 1
   9    5    6 1
  10    5   18 1
  11    6    7 1
  12    6   19 1
  13    6   20 1
  14    7    8 ar
  15    7   12 ar
  16    8    9 ar
  17    8   21 1
  18    9   10 ar
  19    9   22 1
  20   10   11 ar
  21   10   13 1
  22   11   12 ar
  23   11   23 1
  24   12   24 1

#	End of record

