#	Name: ASD03380002
#	Creating user name:	WinNT
#	Creation time:	15. 06. 2019 20:40

#	Modifying user name:	WinNT
#	Modification time:	15. 06. 2019 20:40

#	Program:	/corina/corina34_cracker 3.40 0067  02.08.2006

@<TRIPOS>MOLECULE
ASD03380002
  61   62    0    0    0
SMALL
NO_CHARGES


@<TRIPOS>ATOM
   1 C1            -0.0184     1.5028     0.0103 C.2     
   2 N2             1.3055    -0.4734    -0.4867 N.3     
   3 C3             0.0021    -0.0041     0.0020 C.3     
   4 C4            -0.2279    -0.5251     1.4221 C.3     
   5 C5            -0.3300    -2.0284     1.3953 C.ar    
   6 C6             0.8076    -2.8001     1.5442 C.ar    
   7 C7             0.7167    -4.1783     1.5195 C.ar    
   8 C8            -0.5173    -4.7880     1.3456 C.ar    
   9 O9            -0.6093    -6.1436     1.3214 O.3     
  10 C10           -1.6572    -4.0114     1.1968 C.ar    
  11 C11           -1.5617    -2.6336     1.2274 C.ar    
  12 O12            1.0236     2.1234     0.0037 O.2     
  13 N13           -1.1946     2.1607     0.0195 N.am    
  14 C14           -1.2145     3.6256     0.0275 C.3     
  15 C15           -1.1025     4.1450    -1.4072 C.3     
  16 C16            0.2622     3.7619    -1.9833 C.3     
  17 C17           -2.5060     4.1071     0.6367 C.2     
  18 N18           -2.7466     5.4284     0.7491 N.am    
  19 O19           -3.3288     3.3056     1.0259 O.2     
  20 C20           -4.0022     5.8965     1.3414 C.3     
  21 C21           -3.8642     5.9408     2.8414 C.2     
  22 O22           -4.8971     6.3424     3.5988 O.3     
  23 C23           -4.3222     7.2978     0.8170 C.3     
  24 C24           -4.5811     7.2321    -0.6661 C.ar    
  25 O25           -2.8239     5.6148     3.3623 O.2     
  26 C26           -5.8633     7.0154    -1.1350 C.ar    
  27 C27           -6.1007     6.9552    -2.4955 C.ar    
  28 C28           -5.0561     7.1121    -3.3870 C.ar    
  29 C29           -3.7740     7.3297    -2.9182 C.ar    
  30 C30           -3.5372     7.3943    -1.5578 C.ar    
  31 C31            0.3725     4.2736    -3.3965 C.2     
  32 N32            1.4958     4.0522    -4.1076 N.am    
  33 O33           -0.5496     4.8845    -3.8939 O.2     
  34 H34            2.0536    -0.1430     0.1043 H       
  35 H35            1.3222    -1.4794    -0.5627 H       
  36 H36           -0.7864    -0.3745    -0.6531 H       
  37 H37            0.6068    -0.2288     2.0574 H       
  38 H38           -1.1526    -0.1051     1.8179 H       
  39 H39            1.7680    -2.3250     1.6796 H       
  40 H40            1.6056    -4.7807     1.6352 H       
  41 H41           -0.7556    -6.5435     2.1896 H       
  42 H42           -2.6189    -4.4836     1.0609 H       
  43 H43           -2.4494    -2.0286     1.1160 H       
  44 H44           -2.0280     1.6644     0.0207 H       
  45 H45           -0.3749     3.9971     0.6150 H       
  46 H46           -1.8910     3.7030    -2.0163 H       
  47 H47           -1.2064     5.2301    -1.4100 H       
  48 H48            1.0507     4.2039    -1.3743 H       
  49 H49            0.3661     2.6769    -1.9806 H       
  50 H50           -2.0885     6.0694     0.4379 H       
  51 H51           -4.8081     5.2144     1.0706 H       
  52 H52           -4.7611     6.3542     4.5561 H       
  53 H53           -5.2075     7.6819     1.3237 H       
  54 H54           -3.4776     7.9594     1.0095 H       
  55 H55           -6.6795     6.8928    -0.4384 H       
  56 H56           -7.1024     6.7852    -2.8618 H       
  57 H57           -5.2415     7.0643    -4.4499 H       
  58 H58           -2.9578     7.4520    -3.6147 H       
  59 H59           -2.5356     7.5643    -1.1914 H       
  60 H60            2.2333     3.5636    -3.7097 H       
  61 H61            1.5668     4.3816    -5.0172 H       
@<TRIPOS>BOND
   1    1    3 1
   2    1   12 2
   3    1   13 am
   4    2    3 1
   5    2   34 1
   6    2   35 1
   7    3    4 1
   8    3   36 1
   9    4    5 1
  10    4   37 1
  11    4   38 1
  12    5    6 ar
  13    5   11 ar
  14    6    7 ar
  15    6   39 1
  16    7    8 ar
  17    7   40 1
  18    8    9 1
  19    8   10 ar
  20    9   41 1
  21   10   11 ar
  22   10   42 1
  23   11   43 1
  24   13   14 1
  25   13   44 1
  26   14   17 1
  27   14   15 1
  28   14   45 1
  29   15   16 1
  30   15   46 1
  31   15   47 1
  32   16   31 1
  33   16   48 1
  34   16   49 1
  35   17   18 am
  36   17   19 2
  37   18   20 1
  38   18   50 1
  39   20   21 1
  40   20   23 1
  41   20   51 1
  42   21   22 1
  43   21   25 2
  44   22   52 1
  45   23   24 1
  46   23   53 1
  47   23   54 1
  48   24   26 ar
  49   24   30 ar
  50   26   27 ar
  51   26   55 1
  52   27   28 ar
  53   27   56 1
  54   28   29 ar
  55   28   57 1
  56   29   30 ar
  57   29   58 1
  58   30   59 1
  59   31   32 am
  60   31   33 2
  61   32   60 1
  62   32   61 1

#	End of record

