#	Name: ASD01151086
#	Creating user name:	WinNT
#	Creation time:	15. 06. 2019 19:05

#	Modifying user name:	WinNT
#	Modification time:	15. 06. 2019 19:05

#	Program:	/corina/corina34_cracker 3.40 0067  02.08.2006

@<TRIPOS>MOLECULE
ASD01151086
  52   52    0    0    0
SMALL
NO_CHARGES


@<TRIPOS>ATOM
   1 C1            -0.0173     1.4248     0.0099 C.3     
   2 O2             0.0021    -0.0041     0.0020 O.3     
   3 C3            -1.2953    -0.6030     0.0112 C.3     
   4 O4            -1.9330    -0.3775    -1.2476 O.3     
   5 C5            -1.1606    -2.1079     0.2523 C.3     
   6 C6            -2.5522    -2.7294     0.3864 C.3     
   7 O7            -3.2505    -2.6064    -0.8543 O.3     
   8 C8            -2.4189    -4.1870     0.7454 C.ar    
   9 C9            -2.1300    -5.1161    -0.2370 C.ar    
  10 C10           -2.0072    -6.4528     0.0895 C.ar    
  11 C11           -2.1737    -6.8625     1.4044 C.ar    
  12 O12           -2.0530    -8.1769     1.7282 O.3     
  13 C13           -2.4631    -5.9283     2.3883 C.ar    
  14 C14           -2.5801    -4.5922     2.0575 C.ar    
  15 C15           -2.6450    -6.3700     3.8176 C.3     
  16 C16           -2.9536    -5.1531     4.6922 C.3     
  17 C17           -3.8046    -7.3647     3.9003 C.3     
  18 C18           -1.3616    -7.0408     4.3114 C.3     
  19 C19           -1.6933    -7.4650    -0.9819 C.3     
  20 C20           -1.5613    -6.7554    -2.3310 C.3     
  21 C21           -0.3782    -8.1714    -0.6464 C.3     
  22 C22           -2.8215    -8.4958    -1.0560 C.3     
  23 H23            1.0053     1.8021     0.0021 H       
  24 H24           -0.5445     1.7859    -0.8732 H       
  25 H25           -0.5275     1.7763     0.9067 H       
  26 H26           -1.8945    -0.1598     0.8066 H       
  27 H27           -1.4540    -0.7457    -2.0027 H       
  28 H28           -0.6379    -2.5651    -0.5878 H       
  29 H29           -0.5960    -2.2799     1.1687 H       
  30 H30           -3.1075    -2.2119     1.1687 H       
  31 H31           -2.8127    -3.0443    -1.5971 H       
  32 H32           -2.0005    -4.7965    -1.2605 H       
  33 H33           -1.1544    -8.4422     1.9671 H       
  34 H34           -2.8013    -3.8639     2.8237 H       
  35 H35           -3.8679    -4.6753     4.3404 H       
  36 H36           -3.0851    -5.4726     5.7259 H       
  37 H37           -2.1274    -4.4445     4.6332 H       
  38 H38           -3.5849    -8.2316     3.2773 H       
  39 H39           -3.9362    -7.6842     4.9341 H       
  40 H40           -4.7190    -6.8869     3.5486 H       
  41 H41           -0.5355    -6.3321     4.2524 H       
  42 H42           -1.4932    -7.3603     5.3452 H       
  43 H43           -1.1418    -7.9077     3.6883 H       
  44 H44           -0.7576    -6.0211    -2.2782 H       
  45 H45           -1.3342    -7.4876    -3.1059 H       
  46 H46           -2.4982    -6.2522    -2.5700 H       
  47 H47           -0.4722    -8.6769     0.3147 H       
  48 H48           -0.1511    -8.9036    -1.4213 H       
  49 H49            0.4255    -7.4371    -0.5936 H       
  50 H50           -3.7583    -7.9925    -1.2950 H       
  51 H51           -2.5944    -9.2279    -1.8309 H       
  52 H52           -2.9155    -9.0013    -0.0949 H       
@<TRIPOS>BOND
   1    1    2 1
   2    1   23 1
   3    1   24 1
   4    1   25 1
   5    2    3 1
   6    3    4 1
   7    3    5 1
   8    3   26 1
   9    4   27 1
  10    5    6 1
  11    5   28 1
  12    5   29 1
  13    6    7 1
  14    6    8 1
  15    6   30 1
  16    7   31 1
  17    8   14 ar
  18    8    9 ar
  19    9   10 ar
  20    9   32 1
  21   10   11 ar
  22   10   19 1
  23   11   12 1
  24   11   13 ar
  25   12   33 1
  26   13   14 ar
  27   13   15 1
  28   14   34 1
  29   15   16 1
  30   15   17 1
  31   15   18 1
  32   16   35 1
  33   16   36 1
  34   16   37 1
  35   17   38 1
  36   17   39 1
  37   17   40 1
  38   18   41 1
  39   18   42 1
  40   18   43 1
  41   19   20 1
  42   19   21 1
  43   19   22 1
  44   20   44 1
  45   20   45 1
  46   20   46 1
  47   21   47 1
  48   21   48 1
  49   21   49 1
  50   22   50 1
  51   22   51 1
  52   22   52 1

#	End of record

