#	Name: ASD01916229
#	Creating user name:	WinNT
#	Creation time:	15. 06. 2019 20:06

#	Modifying user name:	WinNT
#	Modification time:	15. 06. 2019 20:06

#	Program:	/corina/corina34_cracker 3.40 0067  02.08.2006

@<TRIPOS>MOLECULE
ASD01916229
  37   39    0    0    0
SMALL
NO_CHARGES


@<TRIPOS>ATOM
   1 C1             0.4263     1.2254    -0.4145 C.ar    
   2 C2             0.6388    -0.1377    -0.3272 C.ar    
   3 C3             1.7832    -0.6254     0.2703 C.ar    
   4 C4             2.7304     0.2594     0.7886 C.ar    
   5 C5             2.5148     1.6352     0.6998 C.ar    
   6 C6             1.3629     2.1136     0.0982 C.ar    
   7 O7             1.1490     3.4526     0.0092 O.3     
   8 C8             1.6340     4.1052    -1.0799 C.ar    
   9 C9             1.5439     5.4897    -1.1808 C.ar    
  10 N10            2.0279     6.0878    -2.2569 N.ar    
  11 C11            2.5888     5.3899    -3.2240 C.ar    
  12 N12            2.6926     4.0774    -3.1655 N.ar    
  13 C13            2.2386     3.4063    -2.1198 C.ar    
  14 C14            3.9571    -0.2592     1.4296 C.2     
  15 N15            4.8701     0.5972     1.9293 N.am    
  16 O16            4.1426    -1.4582     1.5062 O.2     
  17 C17            6.0228     0.1098     2.5317 C.2     
  18 S18            6.4113    -1.5459     2.7068 S.3     
  19 C19            7.9180    -1.1180     3.5133 C.2     
  20 C20            7.9901     0.2131     3.5762 C.2     
  21 N21            6.9635     0.8444     3.0380 N.2     
  22 C22            9.1522     0.9369     4.2060 C.3     
  23 C23           -0.3829    -1.0944    -0.8858 C.3     
  24 H24           -0.4691     1.6012    -0.8872 H       
  25 H25            1.9458    -1.6910     0.3371 H       
  26 H26            3.2437     2.3247     1.0993 H       
  27 H27            1.0852     6.0679    -0.3923 H       
  28 H28            2.9742     5.9085    -4.0894 H       
  29 H29            2.3273     2.3308    -2.0784 H       
  30 H30            4.7221     1.5539     1.8682 H       
  31 H31            8.6543    -1.8117     3.8913 H       
  32 H32            9.9139     1.1282     3.4501 H       
  33 H33            8.8080     1.8835     4.6226 H       
  34 H34            9.5753     0.3225     5.0007 H       
  35 H35           -0.1484    -1.3083    -1.9286 H       
  36 H36           -0.3650    -2.0209    -0.3119 H       
  37 H37           -1.3743    -0.6459    -0.8209 H       
@<TRIPOS>BOND
   1    1    2 ar
   2    1    6 ar
   3    1   24 1
   4    2    3 ar
   5    2   23 1
   6    3    4 ar
   7    3   25 1
   8    4    5 ar
   9    4   14 1
  10    5    6 ar
  11    5   26 1
  12    6    7 1
  13    7    8 1
  14    8    9 ar
  15    8   13 ar
  16    9   10 ar
  17    9   27 1
  18   10   11 ar
  19   11   12 ar
  20   11   28 1
  21   12   13 ar
  22   13   29 1
  23   14   15 am
  24   14   16 2
  25   15   17 1
  26   15   30 1
  27   17   18 1
  28   17   21 2
  29   18   19 1
  30   19   20 2
  31   19   31 1
  32   20   21 1
  33   20   22 1
  34   22   32 1
  35   22   33 1
  36   22   34 1
  37   23   35 1
  38   23   36 1
  39   23   37 1

#	End of record

