#	Name: ASD01120215
#	Creating user name:	WinNT
#	Creation time:	15. 06. 2019 18:59

#	Modifying user name:	WinNT
#	Modification time:	15. 06. 2019 18:59

#	Program:	/corina/corina34_cracker 3.40 0067  02.08.2006

@<TRIPOS>MOLECULE
ASD01120215
  33   35    0    0    0
SMALL
NO_CHARGES


@<TRIPOS>ATOM
   1 C1             0.1335     0.7016    -0.7874 C.ar    
   2 C2             0.2930    -0.6788    -0.7431 C.ar    
   3 C3             1.5523    -1.2328    -0.5842 C.ar    
   4 C4             2.6588    -0.4079    -0.4689 C.ar    
   5 C5             2.4998     0.9853    -0.5133 C.ar    
   6 C6             1.2267     1.5325    -0.6737 C.ar    
   7 O7             3.9827    -0.6362    -0.3084 O.3     
   8 C8             4.6108     0.5519    -0.2562 C.2     
   9 N9             3.7441     1.5240    -0.3764 N.2     
  10 N10            5.9688     0.7203    -0.0990 N.am    
  11 S11            6.6292     2.2371    -0.1745 S.o2    
  12 O12            5.8510     3.0569     0.6866 O.2     
  13 O13            8.0331     2.0711    -0.0302 O.2     
  14 C14            6.3649     2.8403    -1.8088 C.ar    
  15 C15            6.9576     2.2046    -2.8850 C.ar    
  16 C16            6.7497     2.6780    -4.1685 C.ar    
  17 C17            5.9495     3.7855    -4.3752 C.ar    
  18 C18            5.3562     4.4210    -3.2987 C.ar    
  19 C19            5.5606     3.9451    -2.0160 C.ar    
  20 Cl20           7.9629     0.8133    -2.6252 Cl      
  21 Cl21           4.3510     5.8123    -3.5584 Cl      
  22 O22           -0.7931    -1.4891    -0.8559 O.3     
  23 C23           -2.0628    -0.8535    -1.0170 C.3     
  24 H24           -0.8518     1.1247    -0.9161 H       
  25 H25            1.6711    -2.3056    -0.5501 H       
  26 H26            1.0984     2.6043    -0.7090 H       
  27 H27            6.5383    -0.0495     0.0559 H       
  28 H28            7.2130     2.1822    -5.0086 H       
  29 H29            5.7875     4.1552    -5.3769 H       
  30 H30            5.0973     4.4410    -1.1759 H       
  31 H31           -2.0537    -0.2482    -1.9234 H       
  32 H32           -2.8416    -1.6122    -1.0946 H       
  33 H33           -2.2616    -0.2155    -0.1560 H       
@<TRIPOS>BOND
   1    1    2 ar
   2    1    6 ar
   3    1   24 1
   4    2    3 ar
   5    2   22 1
   6    3    4 ar
   7    3   25 1
   8    4    5 ar
   9    4    7 1
  10    5    6 ar
  11    5    9 1
  12    6   26 1
  13    7    8 1
  14    8    9 2
  15    8   10 1
  16   10   11 am
  17   10   27 1
  18   11   12 2
  19   11   13 2
  20   11   14 1
  21   14   15 ar
  22   14   19 ar
  23   15   16 ar
  24   15   20 1
  25   16   17 ar
  26   16   28 1
  27   17   18 ar
  28   17   29 1
  29   18   19 ar
  30   18   21 1
  31   19   30 1
  32   22   23 1
  33   23   31 1
  34   23   32 1
  35   23   33 1

#	End of record

