#	Name: ASD08710029
#	Creating user name:	WinNT
#	Creation time:	15. 06. 2019 21:19

#	Modifying user name:	WinNT
#	Modification time:	15. 06. 2019 21:19

#	Program:	/corina/corina34_cracker 3.40 0067  02.08.2006

@<TRIPOS>MOLECULE
ASD08710029
  47   49    0    0    0
SMALL
NO_CHARGES


@<TRIPOS>ATOM
   1 C1             1.6297     2.8003     2.8439 C.ar    
   2 C2             1.3126     1.5563     2.3391 C.ar    
   3 C3             2.9681     3.1725     2.9849 C.ar    
   4 C4             3.9769     2.2814     2.6134 C.ar    
   5 C5             3.6455     1.0405     2.1101 C.ar    
   6 C6             2.3173     0.6781     1.9730 C.ar    
   7 S7             1.9032    -0.9091     1.3297 S.o2    
   8 O8             0.5902    -0.7965     0.7980 O.2     
   9 O9             3.0196    -1.3338     0.5599 O.2     
  10 N10            1.7995    -1.9474     2.6156 N.am    
  11 C11            0.5231    -2.1444     3.3169 C.3     
  12 C12            2.9809    -2.6929     3.0720 C.3     
  13 C13            2.6446    -4.1893     3.0762 C.3     
  14 N14            1.3695    -4.3821     3.7811 N.am    
  15 C15            0.1920    -3.6420     3.3206 C.3     
  16 C16            1.2850    -5.2278     4.8271 C.2     
  17 O17            2.2502    -5.8908     5.1519 O.2     
  18 C18            0.0154    -5.3492     5.5808 C.ar    
  19 C19           -1.1964    -5.5627     4.9172 C.ar    
  20 C20           -2.3568    -5.6703     5.6596 C.ar    
  21 N21           -2.3308    -5.5739     6.9738 N.ar    
  22 C22           -1.2102    -5.3729     7.6384 C.ar    
  23 C23           -0.0034    -5.2592     6.9761 C.ar    
  24 C24            2.5164    -4.6908     1.6364 C.3     
  25 C25           -1.2455    -5.2717     9.1416 C.3     
  26 C26            3.3047     4.4625     3.5077 C.1     
  27 N27            3.5716     5.4858     3.9225 N.1     
  28 H28            0.8446     3.4865     3.1251 H       
  29 H29            0.2779     1.2669     2.2298 H       
  30 H30            5.0140     2.5631     2.7196 H       
  31 H31            4.4247     0.3503     1.8220 H       
  32 H32            0.6104    -1.7865     4.3428 H       
  33 H33           -0.2658    -1.5966     2.8016 H       
  34 H34            3.8148    -2.5073     2.3950 H       
  35 H35            3.2472    -2.3750     4.0801 H       
  36 H36            3.4331    -4.7400     3.5892 H       
  37 H37           -0.6430    -3.8255     3.9967 H       
  38 H38           -0.0719    -3.9644     2.3134 H       
  39 H39           -1.2252    -5.6419     3.8405 H       
  40 H40           -3.2979    -5.8352     5.1561 H       
  41 H41            0.9109    -5.0949     7.5271 H       
  42 H42            3.4585    -4.5329     1.1114 H       
  43 H43            2.2774    -5.7543     1.6421 H       
  44 H44            1.7220    -4.1426     1.1301 H       
  45 H45           -1.1144    -6.2628     9.5757 H       
  46 H46           -0.4424    -4.6174     9.4806 H       
  47 H47           -2.2053    -4.8615     9.4557 H       
@<TRIPOS>BOND
   1    1    2 ar
   2    1    3 ar
   3    1   28 1
   4    2    6 ar
   5    2   29 1
   6    3    4 ar
   7    3   26 1
   8    4    5 ar
   9    4   30 1
  10    5    6 ar
  11    5   31 1
  12    6    7 1
  13    7    8 2
  14    7    9 2
  15    7   10 am
  16   10   11 1
  17   10   12 1
  18   11   15 1
  19   11   32 1
  20   11   33 1
  21   12   13 1
  22   12   34 1
  23   12   35 1
  24   13   14 1
  25   13   24 1
  26   13   36 1
  27   14   15 1
  28   14   16 am
  29   15   37 1
  30   15   38 1
  31   16   17 2
  32   16   18 1
  33   18   19 ar
  34   18   23 ar
  35   19   20 ar
  36   19   39 1
  37   20   21 ar
  38   20   40 1
  39   21   22 ar
  40   22   23 ar
  41   22   25 1
  42   23   41 1
  43   24   42 1
  44   24   43 1
  45   24   44 1
  46   25   45 1
  47   25   46 1
  48   25   47 1
  49   26   27 3

#	End of record

