#	Name: ASD02198117
#	Creating user name:	WinNT
#	Creation time:	15. 06. 2019 20:18

#	Modifying user name:	WinNT
#	Modification time:	15. 06. 2019 20:18

#	Program:	/corina/corina34_cracker 3.40 0067  02.08.2006

@<TRIPOS>MOLECULE
ASD02198117
  47   49    0    0    0
SMALL
NO_CHARGES


@<TRIPOS>ATOM
   1 C1            -0.0189     1.3490    -0.2542 C.2     
   2 C2             0.0070    -0.0290    -0.2061 C.2     
   3 C3            -1.1773    -0.8335    -0.2368 C.1     
   4 S4             1.5602     1.9892    -0.1984 S.3     
   5 C5             2.2770     0.3884    -0.1089 C.2     
   6 C6             1.2892    -0.5679    -0.1249 C.2     
   7 C7             3.6576     0.1236    -0.0326 C.2     
   8 C8             4.6309     1.2320    -0.1476 C.ar    
   9 O9             4.0513    -1.0192     0.1282 O.2     
  10 N10            1.5431    -1.9292    -0.0662 N.pl3   
  11 N11           -1.1643     2.1048    -0.3413 N.pl3   
  12 N12           -2.1167    -1.4718    -0.2612 N.1     
  13 C13            5.2814     1.7142     0.9888 C.ar    
  14 C14           -1.0756     3.5665    -0.3860 C.3     
  15 C15           -2.4614     4.1511    -0.4803 C.ar    
  16 C16           -3.1601     4.4592     0.6727 C.ar    
  17 C17            6.1882     2.7476     0.8749 C.ar    
  18 C18            6.4538     3.3066    -0.3627 C.ar    
  19 C19            5.8128     2.8346    -1.4939 C.ar    
  20 C20            4.9070     1.7967    -1.3951 C.ar    
  21 Cl21           4.1035     1.2047    -2.8155 Cl      
  22 C22           -3.0290     4.3833    -1.7188 C.ar    
  23 C23           -4.4340     4.9967     0.5878 C.ar    
  24 C24           -4.3002     4.9201    -1.8106 C.ar    
  25 C25           -5.0079     5.2253    -0.6596 C.ar    
  26 O26           -6.2582     5.7527    -0.7481 O.3     
  27 O27           -5.1225     5.2999     1.7206 O.3     
  28 C28           -6.7809     5.9661    -2.0608 C.3     
  29 C29           -4.4713     5.0381     2.9654 C.3     
  30 H30            2.4568    -2.2501    -0.0105 H       
  31 H31            0.8072    -2.5609    -0.0808 H       
  32 H32           -2.0309     1.6703    -0.3731 H       
  33 H33            5.0751     1.2794     1.9557 H       
  34 H34           -0.5892     3.9289     0.5196 H       
  35 H35           -0.4938     3.8687    -1.2568 H       
  36 H36           -2.7126     4.2806     1.6392 H       
  37 H37            6.6918     3.1216     1.7541 H       
  38 H38            7.1647     4.1154    -0.4458 H       
  39 H39            6.0241     3.2757    -2.4568 H       
  40 H40           -2.4785     4.1454    -2.6170 H       
  41 H41           -4.7412     5.1013    -2.7797 H       
  42 H42           -7.7827     6.3895    -1.9886 H       
  43 H43           -6.1332     6.6556    -2.6022 H       
  44 H44           -6.8255     5.0159    -2.5930 H       
  45 H45           -4.2408     3.9752     3.0383 H       
  46 H46           -3.5480     5.6147     3.0207 H       
  47 H47           -5.1283     5.3246     3.7865 H       
@<TRIPOS>BOND
   1    1    2 2
   2    1    4 1
   3    1   11 1
   4    2    3 1
   5    2    6 1
   6    3   12 3
   7    4    5 1
   8    5    6 2
   9    5    7 1
  10    6   10 1
  11    7    8 1
  12    7    9 2
  13    8   13 ar
  14    8   20 ar
  15   10   30 1
  16   10   31 1
  17   11   14 1
  18   11   32 1
  19   13   17 ar
  20   13   33 1
  21   14   15 1
  22   14   34 1
  23   14   35 1
  24   15   16 ar
  25   15   22 ar
  26   16   23 ar
  27   16   36 1
  28   17   18 ar
  29   17   37 1
  30   18   19 ar
  31   18   38 1
  32   19   20 ar
  33   19   39 1
  34   20   21 1
  35   22   24 ar
  36   22   40 1
  37   23   27 1
  38   23   25 ar
  39   24   25 ar
  40   24   41 1
  41   25   26 1
  42   26   28 1
  43   27   29 1
  44   28   42 1
  45   28   43 1
  46   28   44 1
  47   29   45 1
  48   29   46 1
  49   29   47 1

#	End of record

