#	Name: ASD01910127
#	Creating user name:	WinNT
#	Creation time:	15. 06. 2019 19:55

#	Modifying user name:	WinNT
#	Modification time:	15. 06. 2019 19:55

#	Program:	/corina/corina34_cracker 3.40 0067  02.08.2006

@<TRIPOS>MOLECULE
ASD01910127
  82   88    0    0    0
SMALL
NO_CHARGES


@<TRIPOS>ATOM
   1 C1             5.5195     7.6765    -6.2391 C.ar    
   2 C2             6.5819     7.6764    -7.1290 C.ar    
   3 C3             7.8552     7.4309    -6.6387 C.ar    
   4 C4             8.0277     7.1946    -5.2843 C.ar    
   5 N5             7.0016     7.2001    -4.4616 N.ar    
   6 C6             5.7668     7.4313    -4.8900 C.ar    
   7 C7             4.6422     7.4279    -3.9260 C.2     
   8 N8             4.8576     7.0855    -2.6404 N.am    
   9 C9             3.8251     7.1905    -1.7081 C.ar    
  10 C10            3.7363     6.2748    -0.6490 C.ar    
  11 C11            2.6984     6.3898     0.2781 C.ar    
  12 C12            1.7688     7.3997     0.1483 C.ar    
  13 C13            1.8589     8.3026    -0.8996 C.ar    
  14 C14            2.8851     8.2040    -1.8210 C.ar    
  15 Cl15           0.6809     9.5687    -1.0517 Cl      
  16 C16            4.7337     5.1961    -0.5156 C.2     
  17 O17            6.0373     5.5324    -0.3849 O.3     
  18 C18            7.0112     4.5133    -0.6267 C.3     
  19 C19            6.5982     3.2550     0.1482 C.3     
  20 C20            5.2591     2.7631    -0.4111 C.3     
  21 C21            4.3085     3.9243    -0.5236 C.2     
  22 C22            7.0684     4.2055    -2.1008 C.2     
  23 C23            8.3535     4.2642    -2.8155 C.ar    
  24 O24            6.0555     3.9095    -2.6981 O.2     
  25 O25            3.5252     7.7339    -4.2943 O.2     
  26 C26            2.8672     3.6553    -0.6558 C.ar    
  27 C27            7.6450     2.1850    -0.0255 C.ar    
  28 C28            7.8407     1.6043    -1.2630 C.ar    
  29 C29            8.8010     0.6223    -1.4240 C.ar    
  30 C30            9.5689     0.2183    -0.3459 C.ar    
  31 C31            9.3779     0.7962     0.8953 C.ar    
  32 C32            8.4178     1.7861     1.0578 C.ar    
  33 C33            8.3961     4.0816    -4.2014 C.ar    
  34 C34            9.6041     4.1385    -4.8638 C.ar    
  35 C35           10.7725     4.3752    -4.1607 C.ar    
  36 C36           10.7387     4.5566    -2.7890 C.ar    
  37 C37            9.5379     4.5087    -2.1130 C.ar    
  38 C38            2.2070     3.9367    -1.8558 C.ar    
  39 C39            0.8569     3.6816    -1.9720 C.ar    
  40 C40            0.1554     3.1483    -0.9048 C.ar    
  41 C41            0.8018     2.8671     0.2861 C.ar    
  42 C42            2.1527     3.1117     0.4161 C.ar    
  43 Cl43          10.7725    -1.0156    -0.5523 Cl      
  44 N44            8.2223     2.3732     2.3118 N.am    
  45 C45            8.3669     1.6362     3.4309 C.2     
  46 C46            8.0670     2.2315     4.7537 C.ar    
  47 O47            8.7432     0.4832     3.3547 O.2     
  48 N48            7.6564     3.4913     4.8306 N.ar    
  49 C49            7.3797     4.0576     5.9850 C.ar    
  50 C50            7.5084     3.3542     7.1717 C.ar    
  51 C51            7.9345     2.0354     7.1372 C.ar    
  52 C52            8.2130     1.4626     5.9064 C.ar    
  53 H53            4.5148     7.8685    -6.5857 H       
  54 H54            6.4215     7.8630    -8.1806 H       
  55 H55            8.7043     7.4234    -7.3059 H       
  56 H56            9.0182     7.0030    -4.8991 H       
  57 H57            5.7306     6.7661    -2.3633 H       
  58 H58            2.6237     5.6882     1.0958 H       
  59 H59            0.9666     7.4874     0.8660 H       
  60 H60            2.9491     8.9110    -2.6349 H       
  61 H61            7.9890     4.8513    -0.2836 H       
  62 H62            6.4888     3.4944     1.2060 H       
  63 H63            5.4165     2.3212    -1.3949 H       
  64 H64            4.8376     2.0150     0.2603 H       
  65 H65            7.2428     1.9172    -2.1062 H       
  66 H66            8.9518     0.1696    -2.3928 H       
  67 H67            9.9772     0.4809     1.7365 H       
  68 H68            7.4852     3.8961    -4.7513 H       
  69 H69            9.6386     3.9977    -5.9340 H       
  70 H70           11.7156     4.4183    -4.6852 H       
  71 H71           11.6548     4.7401    -2.2473 H       
  72 H72            9.5131     4.6504    -1.0426 H       
  73 H73            2.7530     4.3532    -2.6894 H       
  74 H74            0.3455     3.8987    -2.8982 H       
  75 H75           -0.9020     2.9510    -1.0018 H       
  76 H76            0.2476     2.4510     1.1145 H       
  77 H77            2.6557     2.8918     1.3461 H       
  78 H78            7.9826     3.3109     2.3762 H       
  79 H79            7.0480     5.0852     6.0082 H       
  80 H80            7.2793     3.8287     8.1144 H       
  81 H81            8.0431     1.4661     8.0485 H       
  82 H82            8.5471     0.4376     5.8423 H       
@<TRIPOS>BOND
   1    1    2 ar
   2    1    6 ar
   3    1   53 1
   4    2    3 ar
   5    2   54 1
   6    3    4 ar
   7    3   55 1
   8    4    5 ar
   9    4   56 1
  10    5    6 ar
  11    6    7 1
  12    7    8 am
  13    7   25 2
  14    8    9 1
  15    8   57 1
  16    9   10 ar
  17    9   14 ar
  18   10   11 ar
  19   10   16 1
  20   11   12 ar
  21   11   58 1
  22   12   13 ar
  23   12   59 1
  24   13   14 ar
  25   13   15 1
  26   14   60 1
  27   16   17 1
  28   16   21 2
  29   17   18 1
  30   18   19 1
  31   18   22 1
  32   18   61 1
  33   19   20 1
  34   19   27 1
  35   19   62 1
  36   20   21 1
  37   20   63 1
  38   20   64 1
  39   21   26 1
  40   22   23 1
  41   22   24 2
  42   23   33 ar
  43   23   37 ar
  44   26   38 ar
  45   26   42 ar
  46   27   28 ar
  47   27   32 ar
  48   28   29 ar
  49   28   65 1
  50   29   30 ar
  51   29   66 1
  52   30   31 ar
  53   30   43 1
  54   31   32 ar
  55   31   67 1
  56   32   44 1
  57   33   34 ar
  58   33   68 1
  59   34   35 ar
  60   34   69 1
  61   35   36 ar
  62   35   70 1
  63   36   37 ar
  64   36   71 1
  65   37   72 1
  66   38   39 ar
  67   38   73 1
  68   39   40 ar
  69   39   74 1
  70   40   41 ar
  71   40   75 1
  72   41   42 ar
  73   41   76 1
  74   42   77 1
  75   44   45 am
  76   44   78 1
  77   45   46 1
  78   45   47 2
  79   46   48 ar
  80   46   52 ar
  81   48   49 ar
  82   49   50 ar
  83   49   79 1
  84   50   51 ar
  85   50   80 1
  86   51   52 ar
  87   51   81 1
  88   52   82 1

#	End of record

