#	Name: ASD05850001
#	Creating user name:	WinNT
#	Creation time:	15. 06. 2019 21:04

#	Modifying user name:	WinNT
#	Modification time:	15. 06. 2019 21:04

#	Program:	/corina/corina34_cracker 3.40 0067  02.08.2006

@<TRIPOS>MOLECULE
ASD05850001
  24   25    0    0    0
SMALL
NO_CHARGES


@<TRIPOS>ATOM
   1 C1            -0.0167     1.3794     0.0096 C.ar    
   2 C2             0.0021    -0.0041     0.0020 C.ar    
   3 C3             1.2039    -0.6829    -0.0126 C.ar    
   4 C4             2.4027     0.0265    -0.0202 C.ar    
   5 C5             2.3804     1.4246    -0.0130 C.ar    
   6 C6             1.1670     2.0930     0.0022 C.ar    
   7 C7             3.6966    -0.6978    -0.0355 C.ar    
   8 C8             4.5690    -0.6000     1.0529 C.ar    
   9 C9             5.7758    -1.2800     1.0302 C.ar    
  10 C10            6.1152    -2.0520    -0.0650 C.ar    
  11 C11            5.2541    -2.1506    -1.1435 C.ar    
  12 C12            4.0459    -1.4831    -1.1316 C.ar    
  13 O13            3.5445     2.1250    -0.0199 O.3     
  14 O14            4.2346     0.1594     2.1287 O.3     
  15 H15           -0.9606     1.9041     0.0169 H       
  16 H16           -0.9269    -0.5548     0.0079 H       
  17 H17            1.2148    -1.7628    -0.0178 H       
  18 H18            1.1460     3.1728     0.0074 H       
  19 H19            6.4523    -1.2066     1.8689 H       
  20 H20            7.0571    -2.5803    -0.0792 H       
  21 H21            5.5263    -2.7555    -1.9958 H       
  22 H22            3.3761    -1.5626    -1.9750 H       
  23 H23            3.8736     2.3322    -0.9052 H       
  24 H24            3.7499    -0.3210     2.8139 H       
@<TRIPOS>BOND
   1    1    2 ar
   2    1    6 ar
   3    1   15 1
   4    2    3 ar
   5    2   16 1
   6    3    4 ar
   7    3   17 1
   8    4    5 ar
   9    4    7 1
  10    5    6 ar
  11    5   13 1
  12    6   18 1
  13    7    8 ar
  14    7   12 ar
  15    8    9 ar
  16    8   14 1
  17    9   10 ar
  18    9   19 1
  19   10   11 ar
  20   10   20 1
  21   11   12 ar
  22   11   21 1
  23   12   22 1
  24   13   23 1
  25   14   24 1

#	End of record

