#	Name: ASD09116301
#	Creating user name:	WinNT
#	Creation time:	15. 06. 2019 21:21

#	Modifying user name:	WinNT
#	Modification time:	15. 06. 2019 21:21

#	Program:	/corina/corina34_cracker 3.40 0067  02.08.2006

@<TRIPOS>MOLECULE
ASD09116301
  79   86    0    0    0
SMALL
NO_CHARGES


@<TRIPOS>ATOM
   1 N1            -0.0590     1.5277    -0.5291 N.2     
   2 N2            -0.0822     0.2491    -1.1092 N.pl3   
   3 C3             1.1947     1.9114    -0.4984 C.2     
   4 N4             1.9589     0.9476    -1.0256 N.2     
   5 C5             1.2029    -0.0626    -1.3991 C.2     
   6 N6             1.6431    -1.2347    -1.9839 N.pl3   
   7 C7            -1.2076    -0.5440    -1.3404 C.ar    
   8 N8             1.6572     3.1285     0.0026 N.pl3   
   9 C9             3.0304     3.3743     0.0834 C.ar    
  10 C10            3.5125     4.6738    -0.0239 C.ar    
  11 C11            3.9154     2.3214     0.2767 C.ar    
  12 C12            5.2731     2.5662     0.3561 C.ar    
  13 C13            5.7446     3.8627     0.2418 C.ar    
  14 C14            4.8728     4.9053     0.0568 C.ar    
  15 N15           -1.1867    -1.4610    -2.2961 N.ar    
  16 N16           -2.1986    -2.2099    -2.5562 N.ar    
  17 C17           -3.3307    -2.1062    -1.8788 C.ar    
  18 C18           -3.4382    -1.1801    -0.8374 C.ar    
  19 C19           -2.3541    -0.3743    -0.5601 C.ar    
  20 C20           -4.5159    -2.9300    -2.2119 C.ar    
  21 C21           -5.7520    -2.3011    -2.3694 C.ar    
  22 C22           -5.8381    -0.8039    -2.2529 C.3     
  23 C23           -5.7905    -0.3553    -0.7948 C.3     
  24 C24           -4.7031    -1.1079    -0.0326 C.3     
  25 C25           -4.4124    -4.3083    -2.3635 C.ar    
  26 C26           -5.5409    -5.0512    -2.6516 C.ar    
  27 C27           -6.7676    -4.4266    -2.7863 C.ar    
  28 C28           -6.8734    -3.0537    -2.6445 C.ar    
  29 C29            7.2342     4.1235     0.3284 C.3     
  30 C30            7.5256     4.8355     1.6516 C.3     
  31 C31            7.3414     6.3338     1.5128 C.3     
  32 C32            5.9062     6.7716     1.2972 C.3     
  33 C33            5.3962     6.3213    -0.0679 C.3     
  34 N34            7.8478     6.9803     2.7308 N.3     
  35 C35            9.2970     7.2047     2.6440 C.3     
  36 C36            9.7198     8.3891     3.5659 C.3     
  37 C37           10.0656     5.9837     3.1991 C.3     
  38 C38           10.8803     6.5454     4.4041 C.3     
  39 C39            9.8924     7.6430     4.9359 C.3     
  40 C40           11.9786     7.4385     3.7503 C.3     
  41 C41           11.2100     8.6595     3.1952 C.3     
  42 H42            2.5890    -1.3668    -2.1533 H       
  43 H43            1.0061    -1.9254    -2.2250 H       
  44 H44            1.0255     3.8041     0.2949 H       
  45 H45            2.8288     5.4970    -0.1696 H       
  46 H46            3.5425     1.3117     0.3652 H       
  47 H47            5.9634     1.7495     0.5070 H       
  48 H48           -2.3927     0.3659     0.2253 H       
  49 H49           -5.0031    -0.3557    -2.7913 H       
  50 H50           -6.7725    -0.4646    -2.7000 H       
  51 H51           -5.5821     0.7139    -0.7549 H       
  52 H52           -6.7560    -0.5496    -0.3278 H       
  53 H53           -5.0498    -2.1189     0.1816 H       
  54 H54           -4.5015    -0.5926     0.9065 H       
  55 H55           -3.4544    -4.7956    -2.2571 H       
  56 H56           -5.4652    -6.1218    -2.7721 H       
  57 H57           -7.6480    -5.0134    -3.0030 H       
  58 H58           -7.8344    -2.5724    -2.7501 H       
  59 H59            7.7743     3.1773     0.2949 H       
  60 H60            7.5445     4.7554    -0.5038 H       
  61 H61            6.8464     4.4606     2.4172 H       
  62 H62            8.5525     4.6272     1.9518 H       
  63 H63            7.9386     6.6788     0.6687 H       
  64 H64            5.2781     6.3355     2.0740 H       
  65 H65            5.8499     7.8584     1.3605 H       
  66 H66            6.2120     6.3464    -0.7904 H       
  67 H67            4.5928     6.9815    -0.3949 H       
  68 H68            7.3584     7.8438     2.9120 H       
  69 H69            9.5890     7.4029     1.6127 H       
  70 H70            9.0543     9.2523     3.5680 H       
  71 H71            9.3681     5.2170     3.5364 H       
  72 H72           10.7372     5.5808     2.4411 H       
  73 H73           11.2210     5.8101     5.1331 H       
  74 H74           10.3551     8.2778     5.6916 H       
  75 H75            8.9549     7.2129     5.2882 H       
  76 H76           12.7057     7.7551     4.4981 H       
  77 H77           12.4735     6.9012     2.9414 H       
  78 H78           11.3271     8.7224     2.1133 H       
  79 H79           11.5593     9.5763     3.6700 H       
@<TRIPOS>BOND
   1    1    2 1
   2    1    3 2
   3    2    7 1
   4    2    5 1
   5    3    4 1
   6    3    8 1
   7    4    5 2
   8    5    6 1
   9    6   42 1
  10    6   43 1
  11    7   15 ar
  12    7   19 ar
  13    8    9 1
  14    8   44 1
  15    9   10 ar
  16    9   11 ar
  17   10   14 ar
  18   10   45 1
  19   11   12 ar
  20   11   46 1
  21   12   13 ar
  22   12   47 1
  23   13   14 ar
  24   13   29 1
  25   14   33 1
  26   15   16 ar
  27   16   17 ar
  28   17   18 ar
  29   17   20 1
  30   18   19 ar
  31   18   24 1
  32   19   48 1
  33   20   21 ar
  34   20   25 ar
  35   21   22 1
  36   21   28 ar
  37   22   23 1
  38   22   49 1
  39   22   50 1
  40   23   24 1
  41   23   51 1
  42   23   52 1
  43   24   53 1
  44   24   54 1
  45   25   26 ar
  46   25   55 1
  47   26   27 ar
  48   26   56 1
  49   27   28 ar
  50   27   57 1
  51   28   58 1
  52   29   30 1
  53   29   59 1
  54   29   60 1
  55   30   31 1
  56   30   61 1
  57   30   62 1
  58   31   32 1
  59   31   34 1
  60   31   63 1
  61   32   33 1
  62   32   64 1
  63   32   65 1
  64   33   66 1
  65   33   67 1
  66   34   35 1
  67   34   68 1
  68   35   36 1
  69   35   37 1
  70   35   69 1
  71   36   39 1
  72   36   41 1
  73   36   70 1
  74   37   38 1
  75   37   71 1
  76   37   72 1
  77   38   39 1
  78   38   40 1
  79   38   73 1
  80   39   74 1
  81   39   75 1
  82   40   41 1
  83   40   76 1
  84   40   77 1
  85   41   78 1
  86   41   79 1

#	End of record

