#	Name: ASD01120351
#	Creating user name:	WinNT
#	Creation time:	15. 06. 2019 18:59

#	Modifying user name:	WinNT
#	Modification time:	15. 06. 2019 18:59

#	Program:	/corina/corina34_cracker 3.40 0067  02.08.2006

@<TRIPOS>MOLECULE
ASD01120351
  41   43    0    0    0
SMALL
NO_CHARGES


@<TRIPOS>ATOM
   1 C1             0.0063     1.3614    -0.1896 C.3     
   2 O2             0.0142    -0.0675    -0.1833 O.3     
   3 C3            -1.2874    -0.6558    -0.1401 C.3     
   4 C4            -1.1582    -2.1803    -0.1371 C.3     
   5 C5            -2.5309    -2.8006    -0.0916 C.2     
   6 S6            -3.4100    -3.2108     1.3755 S.3     
   7 C7            -4.7655    -3.8138     0.4308 C.2     
   8 C8            -4.4989    -3.6815    -0.8696 C.2     
   9 C9            -3.2675    -3.1174    -1.1581 C.2     
  10 Cl10          -2.7189    -2.8539    -2.7839 Cl      
  11 S11           -6.2487    -4.4898     1.0998 S.o2    
  12 O12           -6.3742    -3.9610     2.4128 O.2     
  13 O13           -7.2470    -4.3342     0.1006 O.2     
  14 N14           -6.0103    -6.1194     1.2729 N.am    
  15 C15           -5.0871    -6.5769     2.1418 C.2     
  16 O16           -4.4294    -5.7931     2.7986 O.2     
  17 N17           -4.8930    -7.9031     2.2826 N.am    
  18 C18           -3.8807    -8.3757     3.1210 C.ar    
  19 C19           -3.4364    -7.6043     4.1765 C.ar    
  20 C20           -2.4301    -8.0693     5.0139 C.ar    
  21 Br21          -1.8385    -6.9945     6.4529 Br      
  22 C22           -1.8596    -9.3055     4.8068 C.ar    
  23 C23           -2.2901   -10.1029     3.7489 C.ar    
  24 C24           -3.3118    -9.6426     2.8986 C.ar    
  25 C25           -3.5308   -10.6536     1.9332 C.2     
  26 N26           -2.7173   -11.6410     2.1722 N.2     
  27 N27           -1.9310   -11.3454     3.2924 N.pl3   
  28 H28            1.0315     1.7303    -0.2232 H       
  29 H29           -0.5369     1.7179    -1.0648 H       
  30 H30           -0.4816     1.7261     0.7143 H       
  31 H31           -1.8022    -0.3329     0.7648 H       
  32 H32           -1.8574    -0.3412    -1.0143 H       
  33 H33           -0.6434    -2.5031    -1.0420 H       
  34 H34           -0.5882    -2.4949     0.7371 H       
  35 H35           -5.1924    -3.9875    -1.6389 H       
  36 H36           -6.5350    -6.7447     0.7489 H       
  37 H37           -5.4564    -8.5295     1.8017 H       
  38 H38           -3.8739    -6.6326     4.3520 H       
  39 H39           -1.0780    -9.6565     5.4643 H       
  40 H40           -4.2534   -10.6129     1.1315 H       
  41 H41           -1.2478   -11.9175     3.6757 H       
@<TRIPOS>BOND
   1    1    2 1
   2    1   28 1
   3    1   29 1
   4    1   30 1
   5    2    3 1
   6    3    4 1
   7    3   31 1
   8    3   32 1
   9    4    5 1
  10    4   33 1
  11    4   34 1
  12    5    6 1
  13    5    9 2
  14    6    7 1
  15    7    8 2
  16    7   11 1
  17    8    9 1
  18    8   35 1
  19    9   10 1
  20   11   12 2
  21   11   13 2
  22   11   14 am
  23   14   15 am
  24   14   36 1
  25   15   16 2
  26   15   17 am
  27   17   18 1
  28   17   37 1
  29   18   19 ar
  30   18   24 ar
  31   19   20 ar
  32   19   38 1
  33   20   21 1
  34   20   22 ar
  35   22   23 ar
  36   22   39 1
  37   23   24 ar
  38   23   27 1
  39   24   25 1
  40   25   26 2
  41   25   40 1
  42   26   27 1
  43   27   41 1

#	End of record

