#	Name: ASD02198115
#	Creating user name:	WinNT
#	Creation time:	15. 06. 2019 20:18

#	Modifying user name:	WinNT
#	Modification time:	15. 06. 2019 20:18

#	Program:	/corina/corina34_cracker 3.40 0067  02.08.2006

@<TRIPOS>MOLECULE
ASD02198115
  40   42    0    0    0
SMALL
NO_CHARGES


@<TRIPOS>ATOM
   1 C1            -0.1520     1.3927    -0.4891 C.2     
   2 C2            -0.0221     0.0205    -0.4406 C.2     
   3 C3            -1.1274    -0.8606    -0.2118 C.1     
   4 S4             1.3548     2.1364    -0.7776 S.3     
   5 C5             2.1820     0.5883    -0.8361 C.2     
   6 C6             1.2814    -0.4310    -0.6343 C.2     
   7 C7             3.5617     0.4164    -1.0573 C.2     
   8 C8             4.4092     1.5836    -1.3864 C.ar    
   9 O9             4.0583    -0.6945    -0.9775 O.2     
  10 N10            1.6347    -1.7713    -0.6242 N.pl3   
  11 N11           -1.3388     2.0700    -0.3316 N.pl3   
  12 N12           -2.0043    -1.5596    -0.0303 N.1     
  13 C13            5.2467     2.1372    -0.4173 C.ar    
  14 C14           -1.3440     3.4682    -0.2720 C.ar    
  15 C15           -2.3945     4.1837    -0.8320 C.ar    
  16 C16           -2.3987     5.5632    -0.7728 C.ar    
  17 C17           -1.3542     6.2346    -0.1541 C.ar    
  18 C18           -0.3046     5.5208     0.4055 C.ar    
  19 C19           -0.3015     4.1410     0.3522 C.ar    
  20 O20           -1.3590     7.5931    -0.0966 O.3     
  21 C21           -0.2519     8.2188     0.5552 C.3     
  22 C22            6.0345     3.2255    -0.7305 C.ar    
  23 C23            5.9959     3.7690    -2.0024 C.ar    
  24 C24            5.1681     3.2263    -2.9686 C.ar    
  25 C25            4.3788     2.1329    -2.6705 C.ar    
  26 Cl26           3.3402     1.4525    -3.8838 Cl      
  27 H27            2.5589    -2.0303    -0.7644 H       
  28 H28            0.9577    -2.4502    -0.4770 H       
  29 H29           -2.1721     1.5785    -0.2619 H       
  30 H30            5.2779     1.7146     0.5761 H       
  31 H31           -3.2076     3.6612    -1.3140 H       
  32 H32           -3.2153     6.1197    -1.2085 H       
  33 H33            0.5084     6.0443     0.8866 H       
  34 H34            0.5158     3.5854     0.7879 H       
  35 H35            0.6712     7.9507     0.0414 H       
  36 H36           -0.3802     9.3009     0.5309 H       
  37 H37           -0.2023     7.8820     1.5907 H       
  38 H38            6.6827     3.6548     0.0192 H       
  39 H39            6.6149     4.6210    -2.2419 H       
  40 H40            5.1422     3.6556    -3.9592 H       
@<TRIPOS>BOND
   1    1    2 2
   2    1    4 1
   3    1   11 1
   4    2    3 1
   5    2    6 1
   6    3   12 3
   7    4    5 1
   8    5    6 2
   9    5    7 1
  10    6   10 1
  11    7    8 1
  12    7    9 2
  13    8   13 ar
  14    8   25 ar
  15   10   27 1
  16   10   28 1
  17   11   14 1
  18   11   29 1
  19   13   22 ar
  20   13   30 1
  21   14   15 ar
  22   14   19 ar
  23   15   16 ar
  24   15   31 1
  25   16   17 ar
  26   16   32 1
  27   17   18 ar
  28   17   20 1
  29   18   19 ar
  30   18   33 1
  31   19   34 1
  32   20   21 1
  33   21   35 1
  34   21   36 1
  35   21   37 1
  36   22   23 ar
  37   22   38 1
  38   23   24 ar
  39   23   39 1
  40   24   25 ar
  41   24   40 1
  42   25   26 1

#	End of record

