#	Name: ASD01915415
#	Creating user name:	WinNT
#	Creation time:	15. 06. 2019 20:05

#	Modifying user name:	WinNT
#	Modification time:	15. 06. 2019 20:05

#	Program:	/corina/corina34_cracker 3.40 0067  02.08.2006

@<TRIPOS>MOLECULE
ASD01915415
  54   58    0    0    0
SMALL
NO_CHARGES


@<TRIPOS>ATOM
   1 C1             0.0429     1.2716    -0.5724 C.ar    
   2 C2             0.1069    -0.1233    -0.6540 C.ar    
   3 C3            -1.0433    -0.8635    -0.8116 C.ar    
   4 C4            -2.2806    -0.2272    -0.8908 C.ar    
   5 C5            -2.3540     1.1773    -0.8095 C.ar    
   6 C6            -1.1887     1.9205    -0.6445 C.ar    
   7 C7             1.2816     2.0578    -0.4035 C.2     
   8 N8             2.4591     1.4286    -0.2187 N.am    
   9 O9             1.2392     3.2726    -0.4311 O.2     
  10 C10            3.6412     2.1647    -0.1631 C.2     
  11 C11            3.7683     3.4969    -0.4001 C.2     
  12 C12            5.1248     3.8356    -0.2372 C.2     
  13 N13            5.7855     2.7434     0.0859 N.2     
  14 N14            4.8762     1.6797     0.1444 N.pl3   
  15 C15            5.1842     0.3489     0.4565 C.ar    
  16 C16            4.4138    -0.3454     1.3791 C.ar    
  17 C17            4.7200    -1.6574     1.6849 C.ar    
  18 C18            5.7926    -2.2796     1.0733 C.ar    
  19 C19            6.5630    -1.5913     0.1539 C.ar    
  20 C20            6.2585    -0.2806    -0.1612 C.ar    
  21 Cl21           7.2257     0.5832    -1.3153 Cl      
  22 C22            5.7094     5.1895    -0.4019 C.ar    
  23 C23            7.0751     5.3894    -0.2105 C.ar    
  24 C24            7.6136     6.6508    -0.3654 C.ar    
  25 C25            6.8003     7.7153    -0.7099 C.ar    
  26 C26            5.4439     7.5225    -0.9010 C.ar    
  27 C27            4.8957     6.2644    -0.7540 C.ar    
  28 C28           -3.5154    -1.0256    -1.0606 C.ar    
  29 C29           -3.5893    -1.9965    -2.0600 C.ar    
  30 C30           -4.7420    -2.7377    -2.2142 C.ar    
  31 C31           -5.8260    -2.5194    -1.3785 C.ar    
  32 C32           -5.7578    -1.5558    -0.3845 C.ar    
  33 C33           -4.6074    -0.8137    -0.2182 C.ar    
  34 F34           -6.9531    -3.2481    -1.5335 F       
  35 C35           -3.6224     1.8370    -0.8906 C.1     
  36 N36           -4.6286     2.3604    -0.9551 N.1     
  37 H37            1.0630    -0.6220    -0.5936 H       
  38 H38           -0.9865    -1.9402    -0.8742 H       
  39 H39           -1.2378     2.9976    -0.5814 H       
  40 H40            2.4838     0.4635    -0.1244 H       
  41 H41            2.9708     4.1748    -0.6662 H       
  42 H42            3.5760     0.1397     1.8577 H       
  43 H43            4.1209    -2.1977     2.4029 H       
  44 H44            6.0295    -3.3054     1.3143 H       
  45 H45            7.4004    -2.0800    -0.3219 H       
  46 H46            7.7110     4.5591     0.0588 H       
  47 H47            8.6719     6.8070    -0.2170 H       
  48 H48            7.2257     8.7007    -0.8297 H       
  49 H49            4.8134     8.3572    -1.1696 H       
  50 H50            3.8366     6.1149    -0.9038 H       
  51 H51           -2.7453    -2.1671    -2.7120 H       
  52 H52           -4.8003    -3.4892    -2.9877 H       
  53 H53           -6.6054    -1.3890     0.2637 H       
  54 H54           -4.5551    -0.0633     0.5568 H       
@<TRIPOS>BOND
   1    1    2 ar
   2    1    7 1
   3    1    6 ar
   4    2    3 ar
   5    2   37 1
   6    3    4 ar
   7    3   38 1
   8    4    5 ar
   9    4   28 1
  10    5    6 ar
  11    5   35 1
  12    6   39 1
  13    7    8 am
  14    7    9 2
  15    8   10 1
  16    8   40 1
  17   10   11 2
  18   10   14 1
  19   11   12 1
  20   11   41 1
  21   12   13 2
  22   12   22 1
  23   13   14 1
  24   14   15 1
  25   15   16 ar
  26   15   20 ar
  27   16   17 ar
  28   16   42 1
  29   17   18 ar
  30   17   43 1
  31   18   19 ar
  32   18   44 1
  33   19   20 ar
  34   19   45 1
  35   20   21 1
  36   22   23 ar
  37   22   27 ar
  38   23   24 ar
  39   23   46 1
  40   24   25 ar
  41   24   47 1
  42   25   26 ar
  43   25   48 1
  44   26   27 ar
  45   26   49 1
  46   27   50 1
  47   28   29 ar
  48   28   33 ar
  49   29   30 ar
  50   29   51 1
  51   30   31 ar
  52   30   52 1
  53   31   32 ar
  54   31   34 1
  55   32   33 ar
  56   32   53 1
  57   33   54 1
  58   35   36 3

#	End of record

