#	Name: ASD03091201
#	Creating user name:	WinNT
#	Creation time:	15. 06. 2019 20:30

#	Modifying user name:	WinNT
#	Modification time:	15. 06. 2019 20:30

#	Program:	/corina/corina34_cracker 3.40 0067  02.08.2006

@<TRIPOS>MOLECULE
ASD03091201
  70   74    0    0    0
SMALL
NO_CHARGES


@<TRIPOS>ATOM
   1 C1            -0.9664    -1.2199     0.0827 C.2     
   2 C2            -0.0302    -0.0421    -0.0024 C.3     
   3 O3            -0.5205    -2.3470     0.1254 O.2     
   4 N4            -2.2988    -1.0205     0.1170 N.am    
   5 C5            -3.2089    -2.1656     0.1998 C.3     
   6 C6            -3.3805    -2.5759     1.6637 C.3     
   7 C7            -4.5692    -1.7791    -0.3843 C.3     
   8 N8             3.2645    -1.0644     1.2182 N.2     
   9 C9             2.0369    -0.6485     1.1500 C.2     
  10 N10            1.3548    -0.5193    -0.0189 N.am    
  11 C11            1.9439    -0.8281    -1.1976 C.2     
  12 C12            3.3351    -1.3026    -1.1552 C.ar    
  13 C13            4.0315    -1.6468    -2.3115 C.ar    
  14 C14            5.3399    -2.0879    -2.2089 C.ar    
  15 C15            5.9554    -2.1870    -0.9612 C.ar    
  16 C16            5.2842    -1.8533     0.1803 C.ar    
  17 C17            3.9635    -1.4050     0.1058 C.ar    
  18 O18            1.3453    -0.7177    -2.2518 O.2     
  19 C19            1.3312    -0.2908     2.4326 C.3     
  20 C20            1.9369    -1.0901     3.5880 C.3     
  21 C21            1.2204    -0.7270     4.8902 C.3     
  22 C22            1.3860     0.7693     5.1632 C.3     
  23 C23            0.7803     1.5687     4.0078 C.3     
  24 C24            1.4967     1.2055     2.7056 C.3     
  25 N25            7.0996    -2.1152    -6.1123 N.3     
  26 C26            5.8745    -2.8678    -5.8021 C.3     
  27 C27            5.2031    -2.3113    -4.5562 C.3     
  28 N28            6.0480    -2.4363    -3.3625 N.3     
  29 C29            7.2634    -1.6218    -3.5006 C.3     
  30 C30            8.4072    -2.4632    -4.0468 C.3     
  31 C31            8.2654    -2.7869    -5.5204 C.3     
  32 C32            7.0665    -0.6952    -5.8347 C.3     
  33 C33            6.9514    -0.4018    -4.3478 C.3     
  34 H34           -0.2325     0.5176    -0.9156 H       
  35 H35           -0.1812     0.6053     0.8614 H       
  36 H36           -2.6553    -0.1189     0.0868 H       
  37 H37           -2.7948    -3.0005    -0.3655 H       
  38 H38           -3.7947    -1.7410     2.2289 H       
  39 H39           -4.0576    -3.4278     1.7253 H       
  40 H40           -2.4114    -2.8512     2.0798 H       
  41 H41           -4.4470    -1.4868    -1.4273 H       
  42 H42           -5.2464    -2.6311    -0.3228 H       
  43 H43           -4.9834    -0.9442     0.1809 H       
  44 H44            3.5556    -1.5707    -3.2780 H       
  45 H45            6.9766    -2.5327    -0.8969 H       
  46 H46            5.7739    -1.9360     1.1393 H       
  47 H47            0.2712    -0.5286     2.3426 H       
  48 H48            1.8190    -2.1561     3.3935 H       
  49 H49            2.9968    -0.8523     3.6780 H       
  50 H50            0.1605    -0.9648     4.8002 H       
  51 H51            1.6520    -1.2964     5.7134 H       
  52 H52            0.8756     1.0281     6.0909 H       
  53 H53            2.4459     1.0072     5.2532 H       
  54 H54           -0.2797     1.3309     3.9178 H       
  55 H55            0.8982     2.6347     4.2023 H       
  56 H56            2.5567     1.4434     2.7956 H       
  57 H57            1.0652     1.7750     1.8825 H       
  58 H58            5.1858    -2.7953    -6.6439 H       
  59 H59            6.1285    -3.9146    -5.6359 H       
  60 H60            4.9751    -1.2579    -4.7186 H       
  61 H61            4.2709    -2.8503    -4.3869 H       
  62 H62            7.5467    -1.2682    -2.5092 H       
  63 H63            9.3417    -1.9228    -3.8961 H       
  64 H64            8.4524    -3.3972    -3.4867 H       
  65 H65            8.1532    -3.8647    -5.6389 H       
  66 H66            9.1656    -2.4645    -6.0438 H       
  67 H67            7.9804    -0.2392    -6.2153 H       
  68 H68            6.2127    -0.2543    -6.3491 H       
  69 H69            5.9365    -0.0692    -4.1299 H       
  70 H70            7.6473     0.3964    -4.0894 H       
@<TRIPOS>BOND
   1    1    2 1
   2    1    3 2
   3    1    4 am
   4    2   10 1
   5    2   34 1
   6    2   35 1
   7    4    5 1
   8    4   36 1
   9    5    6 1
  10    5    7 1
  11    5   37 1
  12    6   38 1
  13    6   39 1
  14    6   40 1
  15    7   41 1
  16    7   42 1
  17    7   43 1
  18    8    9 2
  19    8   17 1
  20    9   10 1
  21    9   19 1
  22   10   11 am
  23   11   12 1
  24   11   18 2
  25   12   13 ar
  26   12   17 ar
  27   13   14 ar
  28   13   44 1
  29   14   15 ar
  30   14   28 1
  31   15   16 ar
  32   15   45 1
  33   16   17 ar
  34   16   46 1
  35   19   20 1
  36   19   24 1
  37   19   47 1
  38   20   21 1
  39   20   48 1
  40   20   49 1
  41   21   22 1
  42   21   50 1
  43   21   51 1
  44   22   23 1
  45   22   52 1
  46   22   53 1
  47   23   24 1
  48   23   54 1
  49   23   55 1
  50   24   56 1
  51   24   57 1
  52   25   26 1
  53   25   31 1
  54   25   32 1
  55   26   27 1
  56   26   58 1
  57   26   59 1
  58   27   28 1
  59   27   60 1
  60   27   61 1
  61   28   29 1
  62   29   30 1
  63   29   33 1
  64   29   62 1
  65   30   31 1
  66   30   63 1
  67   30   64 1
  68   31   65 1
  69   31   66 1
  70   32   33 1
  71   32   67 1
  72   32   68 1
  73   33   69 1
  74   33   70 1

#	End of record

