#	Name: ASD01810518
#	Creating user name:	WinNT
#	Creation time:	15. 06. 2019 19:24

#	Modifying user name:	WinNT
#	Modification time:	15. 06. 2019 19:24

#	Program:	/corina/corina34_cracker 3.40 0067  02.08.2006

@<TRIPOS>MOLECULE
ASD01810518
  48   50    0    0    0
SMALL
NO_CHARGES


@<TRIPOS>ATOM
   1 C1            -0.0095     1.3781     0.1452 C.ar    
   2 C2             0.0105    -0.0104     0.1178 C.ar    
   3 C3             1.1902    -0.6930     0.0413 C.ar    
   4 C4             2.4013     0.0102    -0.0110 C.ar    
   5 C5             2.3818     1.4218     0.0163 C.ar    
   6 C6             1.1644     2.0970     0.0952 C.ar    
   7 C7             3.6732    -0.6978    -0.0924 C.2     
   8 C8             4.8460    -0.0322    -0.1430 C.2     
   9 C9             4.9005     1.3782    -0.1197 C.2     
  10 C10            3.6579     2.1540    -0.0391 C.2     
  11 O11            5.9784     1.9507    -0.1665 O.2     
  12 C12            3.6846     3.5384    -0.0146 C.2     
  13 N13            4.8624     4.1885     0.0793 N.pl3   
  14 N14            4.9012     5.5855    -0.0190 N.am    
  15 C15            6.0783     6.2353     0.0749 C.2     
  16 O16            7.1039     5.6106     0.2446 O.2     
  17 C17            6.1200     7.7380    -0.0310 C.3     
  18 N18            7.5044     8.1986     0.1019 N.pl3   
  19 C19            7.7963     9.5656     0.0362 C.ar    
  20 C20            7.0623    11.8353    -0.2133 C.ar    
  21 C21            6.7734    10.4863    -0.1491 C.ar    
  22 C22            9.1083    10.0027     0.1621 C.ar    
  23 C23            9.3954    11.3521     0.0977 C.ar    
  24 C24            8.3736    12.2706    -0.0923 C.ar    
  25 O25            8.6572    13.5992    -0.1557 O.3     
  26 C26           10.0291    13.9768    -0.0234 C.3     
  27 C27           10.1507    15.4989    -0.1197 C.3     
  28 H28           -0.9541     1.8987     0.2017 H       
  29 H29           -0.9198    -0.5575     0.1579 H       
  30 H30            1.1902    -1.7728     0.0216 H       
  31 H31            1.1420     3.1766     0.1172 H       
  32 H32            3.6769    -1.7776    -0.1123 H       
  33 H33            5.7670    -0.5931    -0.2024 H       
  34 H34            2.7623     4.0974    -0.0709 H       
  35 H35            5.6827     3.6889     0.2151 H       
  36 H36            4.0809     6.0852    -0.1548 H       
  37 H37            5.7263     8.0450    -0.9999 H       
  38 H38            5.5139     8.1751     0.7626 H       
  39 H39            8.2186     7.5560     0.2354 H       
  40 H40            6.2668    12.5515    -0.3575 H       
  41 H41            5.7522    10.1475    -0.2434 H       
  42 H42            9.9039     9.2877     0.3108 H       
  43 H43           10.4157    11.6922     0.1955 H       
  44 H44           10.4064    13.6425     0.9431 H       
  45 H45           10.6116    13.5146    -0.8204 H       
  46 H46            9.7735    15.8331    -1.0861 H       
  47 H47            9.5682    15.9611     0.6773 H       
  48 H48           11.1972    15.7869    -0.0188 H       
@<TRIPOS>BOND
   1    1    2 ar
   2    1    6 ar
   3    1   28 1
   4    2    3 ar
   5    2   29 1
   6    3    4 ar
   7    3   30 1
   8    4    5 ar
   9    4    7 1
  10    5    6 ar
  11    5   10 1
  12    6   31 1
  13    7    8 2
  14    7   32 1
  15    8    9 1
  16    8   33 1
  17    9   10 1
  18    9   11 2
  19   10   12 2
  20   12   13 1
  21   12   34 1
  22   13   14 1
  23   13   35 1
  24   14   15 am
  25   14   36 1
  26   15   16 2
  27   15   17 1
  28   17   18 1
  29   17   37 1
  30   17   38 1
  31   18   19 1
  32   18   39 1
  33   19   22 ar
  34   19   21 ar
  35   20   21 ar
  36   20   24 ar
  37   20   40 1
  38   21   41 1
  39   22   23 ar
  40   22   42 1
  41   23   24 ar
  42   23   43 1
  43   24   25 1
  44   25   26 1
  45   26   27 1
  46   26   44 1
  47   26   45 1
  48   27   46 1
  49   27   47 1
  50   27   48 1

#	End of record

