#	Name: ASD06340004
#	Creating user name:	WinNT
#	Creation time:	15. 06. 2019 21:05

#	Modifying user name:	WinNT
#	Modification time:	15. 06. 2019 21:05

#	Program:	/corina/corina34_cracker 3.40 0067  02.08.2006

@<TRIPOS>MOLECULE
ASD06340004
  25   25    0    0    0
SMALL
NO_CHARGES


@<TRIPOS>ATOM
   1 S1            -0.0210     1.6939     0.0114 S.3     
   2 N2             0.0021    -0.0041     0.0020 N.am    
   3 C3             1.2962    -0.3594    -0.0122 C.2     
   4 N4             2.1856     0.6226    -0.0155 N.am    
   5 C5             1.6912     1.8721    -0.0040 C.2     
   6 O6             1.6365    -1.5277    -0.0214 O.2     
   7 O7             2.3224     2.9128    -0.0052 O.2     
   8 C8             3.6269     0.3610    -0.0302 C.3     
   9 C9             4.1153     0.2773    -1.4777 C.3     
  10 O10            3.9556     1.5494    -2.1086 O.3     
  11 C11            4.3842     1.5802    -3.4715 C.3     
  12 C12           -1.1568    -0.9002     0.0087 C.3     
  13 C13           -1.4972    -1.3045    -1.4271 C.3     
  14 H14            4.1482     1.1691     0.4830 H       
  15 H15            3.8302    -0.5822     0.4770 H       
  16 H16            5.1681    -0.0049    -1.4902 H       
  17 H17            3.5324    -0.4706    -2.0152 H       
  18 H18            5.4426     1.3251    -3.5254 H       
  19 H19            3.8068     0.8594    -4.0503 H       
  20 H20            4.2302     2.5797    -3.8783 H       
  21 H21           -0.9237    -1.7914     0.5914 H       
  22 H22           -2.0097    -0.3879     0.4538 H       
  23 H23           -1.7304    -0.4133    -2.0099 H       
  24 H24           -0.6443    -1.8168    -1.8723 H       
  25 H25           -2.3595    -1.9712    -1.4222 H       
@<TRIPOS>BOND
   1    1    2 1
   2    1    5 1
   3    2    3 am
   4    2   12 1
   5    3    4 am
   6    3    6 2
   7    4    5 am
   8    4    8 1
   9    5    7 2
  10    8    9 1
  11    8   14 1
  12    8   15 1
  13    9   10 1
  14    9   16 1
  15    9   17 1
  16   10   11 1
  17   11   18 1
  18   11   19 1
  19   11   20 1
  20   12   13 1
  21   12   21 1
  22   12   22 1
  23   13   23 1
  24   13   24 1
  25   13   25 1

#	End of record

