#	Name: ASD01841059
#	Creating user name:	WinNT
#	Creation time:	15. 06. 2019 19:38

#	Modifying user name:	WinNT
#	Modification time:	15. 06. 2019 19:38

#	Program:	/corina/corina34_cracker 3.40 0067  02.08.2006

@<TRIPOS>MOLECULE
ASD01841059
  39   42    0    0    0
SMALL
NO_CHARGES


@<TRIPOS>ATOM
   1 S1            -0.0204     1.6518     0.0111 S.o2    
   2 N2             0.0021    -0.0041     0.0020 N.am    
   3 S3             0.6146    -2.4449     1.2010 S.3     
   4 C4             0.5272    -0.6934     1.0773 C.2     
   5 N5             1.0231    -0.1444     2.1319 N.2     
   6 C6             1.4996    -0.9545     3.0998 C.ar    
   7 C7             1.3714    -2.3093     2.7864 C.ar    
   8 C8             1.8139    -3.2851     3.6779 C.ar    
   9 C9             2.3824    -2.9228     4.8787 C.ar    
  10 C10            2.5169    -1.5820     5.2060 C.ar    
  11 C11            2.0870    -0.6036     4.3378 C.ar    
  12 C12            1.6691    -4.7433     3.3263 C.3     
  13 O13            2.2263     0.7066     4.6729 O.3     
  14 C14            2.8275     0.9924     5.9374 C.3     
  15 C15            1.6553     2.1962    -0.0020 C.ar    
  16 O16           -0.5821     2.0523    -1.2312 O.2     
  17 O17           -0.5583     2.0388     1.2681 O.2     
  18 C18            2.2901     2.4125    -1.1936 C.ar    
  19 C19            3.6160     2.8432    -1.2021 C.ar    
  20 C20            4.2969     3.0541     0.0085 C.ar    
  21 C21            3.6332     2.8292     1.2082 C.ar    
  22 C22            2.3207     2.4081     1.1970 C.ar    
  23 C23            4.5836     3.1659    -2.2576 C.2     
  24 C24            5.7122     3.5270    -1.6320 C.2     
  25 O25            5.5445     3.4616    -0.2996 O.3     
  26 H26           -0.3536    -0.4898    -0.7586 H       
  27 H27            2.7232    -3.6830     5.5659 H       
  28 H28            2.9631    -1.3029     6.1491 H       
  29 H29            2.5610    -5.0799     2.7978 H       
  30 H30            1.5456    -5.3266     4.2388 H       
  31 H31            0.7960    -4.8782     2.6879 H       
  32 H32            2.2289     0.5487     6.7329 H       
  33 H33            3.8340     0.5747     5.9639 H       
  34 H34            2.8783     2.0719     6.0799 H       
  35 H35            1.7667     2.2500    -2.1242 H       
  36 H36            4.1433     2.9869     2.1470 H       
  37 H37            1.8071     2.2344     2.1311 H       
  38 H38            4.4192     3.1208    -3.3240 H       
  39 H39            6.6243     3.8271    -2.1263 H       
@<TRIPOS>BOND
   1    1    2 am
   2    1   15 1
   3    1   16 2
   4    1   17 2
   5    2    4 1
   6    2   26 1
   7    3    4 1
   8    3    7 1
   9    4    5 2
  10    5    6 1
  11    6    7 ar
  12    6   11 ar
  13    7    8 ar
  14    8    9 ar
  15    8   12 1
  16    9   10 ar
  17    9   27 1
  18   10   11 ar
  19   10   28 1
  20   11   13 1
  21   12   29 1
  22   12   30 1
  23   12   31 1
  24   13   14 1
  25   14   32 1
  26   14   33 1
  27   14   34 1
  28   15   18 ar
  29   15   22 ar
  30   18   19 ar
  31   18   35 1
  32   19   20 ar
  33   19   23 1
  34   20   21 ar
  35   20   25 1
  36   21   22 ar
  37   21   36 1
  38   22   37 1
  39   23   24 2
  40   23   38 1
  41   24   25 1
  42   24   39 1

#	End of record

