#	Name: ASD01120352
#	Creating user name:	WinNT
#	Creation time:	15. 06. 2019 18:59

#	Modifying user name:	WinNT
#	Modification time:	15. 06. 2019 18:59

#	Program:	/corina/corina34_cracker 3.40 0067  02.08.2006

@<TRIPOS>MOLECULE
ASD01120352
  30   31    0    0    0
SMALL
NO_CHARGES


@<TRIPOS>ATOM
   1 C1            -0.0168     1.3858     0.0097 C.ar    
   2 C2             0.0021    -0.0041     0.0020 C.ar    
   3 C3            -1.1730    -0.7218     0.0094 C.ar    
   4 C4            -2.3932    -0.0523     0.0251 C.ar    
   5 C5            -2.4102     1.3565     0.0333 C.ar    
   6 C6            -1.2015     2.0647     0.0303 C.ar    
   7 N7            -3.7003    -0.4793     0.0354 N.pl3   
   8 C8            -4.5293     0.6262     0.0498 C.2     
   9 C9            -3.7690     1.7532     0.0488 C.2     
  10 C10           -4.2808     3.1705     0.0619 C.3     
  11 C11           -4.4406     3.6418     1.5087 C.3     
  12 C12           -4.9525     5.0591     1.5218 C.2     
  13 O13           -5.1696     5.6835     2.6900 O.3     
  14 O14           -5.1675     5.6334     0.4808 O.2     
  15 C15           -5.9977     0.5895     0.0639 C.2     
  16 O16           -6.6316     1.6268     0.0756 O.2     
  17 O17           -6.6426    -0.5948     0.0640 O.3     
  18 Cl18           1.4793     2.2664     0.0001 Cl      
  19 N19           -1.1388    -2.2017     0.0001 N.pl3   
  20 O20           -0.0702    -2.7860    -0.0140 O.2     
  21 O21           -2.1791    -2.8350     0.0067 O.2     
  22 H22            0.9475    -0.5260    -0.0102 H       
  23 H23           -1.2066     3.1447     0.0369 H       
  24 H24           -3.9924    -1.4043     0.0327 H       
  25 H25           -3.5720     3.8176    -0.4548 H       
  26 H26           -5.2461     3.2129    -0.4427 H       
  27 H27           -5.1494     2.9947     2.0255 H       
  28 H28           -3.4753     3.5994     2.0133 H       
  29 H29           -5.4980     6.5920     2.6478 H       
  30 H30           -7.6092    -0.5683     0.0735 H       
@<TRIPOS>BOND
   1    1    2 ar
   2    1   18 1
   3    1    6 ar
   4    2    3 ar
   5    2   22 1
   6    3   19 1
   7    3    4 ar
   8    4    5 ar
   9    4    7 1
  10    5    6 ar
  11    5    9 1
  12    6   23 1
  13    7    8 1
  14    7   24 1
  15    8    9 2
  16    8   15 1
  17    9   10 1
  18   10   11 1
  19   10   25 1
  20   10   26 1
  21   11   12 1
  22   11   27 1
  23   11   28 1
  24   12   13 1
  25   12   14 2
  26   13   29 1
  27   15   16 2
  28   15   17 1
  29   17   30 1
  30   19   20 2
  31   19   21 2

#	End of record

