#	Name: ASD05503054
#	Creating user name:	WinNT
#	Creation time:	15. 06. 2019 21:01

#	Modifying user name:	WinNT
#	Modification time:	15. 06. 2019 21:01

#	Program:	/corina/corina34_cracker 3.40 0067  02.08.2006

@<TRIPOS>MOLECULE
ASD05503054
  39   40    0    0    0
SMALL
NO_CHARGES


@<TRIPOS>ATOM
   1 C1             0.5306     1.6030    -0.2737 C.ar    
   2 C2             0.4275     0.2218    -0.1626 C.ar    
   3 C3             1.5730    -0.5582    -0.1272 C.ar    
   4 C4             2.8266     0.0483    -0.2039 C.ar    
   5 C5             2.9194     1.4370    -0.3159 C.ar    
   6 C6             1.7732     2.2043    -0.3498 C.ar    
   7 N7            -0.8328    -0.3819    -0.0860 N.am    
   8 C8            -1.0386    -1.5867    -0.6540 C.2     
   9 C9            -2.3575    -2.2918    -0.4686 C.3     
  10 O10           -0.1622    -2.1034    -1.3143 O.2     
  11 C11           -2.3292    -3.6297    -1.2103 C.3     
  12 C12            4.0530    -0.7764    -0.1663 C.2     
  13 N13            5.2632    -0.1879    -0.2406 N.am    
  14 C14            6.4243    -0.9570    -0.1078 C.ar    
  15 C15            6.4602    -2.2538    -0.6021 C.ar    
  16 C16            7.6082    -3.0108    -0.4693 C.ar    
  17 C17            8.7210    -2.4789     0.1554 C.ar    
  18 C18            8.6893    -1.1876     0.6496 C.ar    
  19 C19            7.5466    -0.4225     0.5144 C.ar    
  20 Cl20           7.5073     1.1984     1.1349 Cl      
  21 C21           -3.6683    -4.3455    -1.0221 C.3     
  22 O22            3.9698    -1.9852    -0.0684 O.2     
  23 H23           -0.3631     2.2086    -0.3053 H       
  24 H24            1.4950    -1.6319    -0.0402 H       
  25 H25            3.8883     1.9105    -0.3752 H       
  26 H26            1.8470     3.2783    -0.4364 H       
  27 H27           -1.5582     0.0668     0.3760 H       
  28 H28           -2.5289    -2.4685     0.5932 H       
  29 H29           -3.1602    -1.6718    -0.8680 H       
  30 H30           -2.1578    -3.4529    -2.2721 H       
  31 H31           -1.5266    -4.2496    -0.8109 H       
  32 H32            5.3292     0.7688    -0.3862 H       
  33 H33            5.5913    -2.6706    -1.0896 H       
  34 H34            7.6363    -4.0197    -0.8538 H       
  35 H35            9.6168    -3.0733     0.2579 H       
  36 H36            9.5602    -0.7751     1.1374 H       
  37 H37           -3.8397    -4.5223     0.0397 H       
  38 H38           -4.4710    -3.7256    -1.4215 H       
  39 H39           -3.6482    -5.2987    -1.5505 H       
@<TRIPOS>BOND
   1    1    2 ar
   2    1    6 ar
   3    1   23 1
   4    2    3 ar
   5    2    7 1
   6    3    4 ar
   7    3   24 1
   8    4    5 ar
   9    4   12 1
  10    5    6 ar
  11    5   25 1
  12    6   26 1
  13    7    8 am
  14    7   27 1
  15    8    9 1
  16    8   10 2
  17    9   11 1
  18    9   28 1
  19    9   29 1
  20   11   21 1
  21   11   30 1
  22   11   31 1
  23   12   13 am
  24   12   22 2
  25   13   14 1
  26   13   32 1
  27   14   15 ar
  28   14   19 ar
  29   15   16 ar
  30   15   33 1
  31   16   17 ar
  32   16   34 1
  33   17   18 ar
  34   17   35 1
  35   18   19 ar
  36   18   36 1
  37   19   20 1
  38   21   37 1
  39   21   38 1
  40   21   39 1

#	End of record

