#	Name: ASD00844408
#	Creating user name:	WinNT
#	Creation time:	15. 06. 2019 18:50

#	Modifying user name:	WinNT
#	Modification time:	15. 06. 2019 18:50

#	Program:	/corina/corina34_cracker 3.40 0067  02.08.2006

@<TRIPOS>MOLECULE
ASD00844408
  98  103    0    0    0
SMALL
NO_CHARGES


@<TRIPOS>ATOM
   1 F1            -0.0790    -3.1444     4.7191 F       
   2 C2            -0.0058     1.3862     0.0348 C.ar    
   3 C3             0.0089    -0.0007     0.0177 C.ar    
   4 C4             1.2191    -0.6792    -0.0020 C.ar    
   5 C5             2.4058     0.0276    -0.0046 C.ar    
   6 C6             2.3885     1.4103     0.0130 C.ar    
   7 C7             1.1841     2.0886     0.0322 C.ar    
   8 C8             1.2387    -2.1860    -0.0202 C.3     
   9 C9             0.4943    -2.7113    -1.2288 C.2     
  10 N10            2.6179    -2.6800    -0.0123 N.am    
  11 C11            3.4633    -2.3341    -1.0034 C.2     
  12 N12            4.7589    -2.7002    -0.9424 N.am    
  13 O13            3.0571    -1.6917    -1.9524 O.2     
  14 C14            5.6723    -2.4336    -2.0640 C.3     
  15 C15            6.9190    -1.7284    -1.5194 C.3     
  16 N16            7.4921    -2.5273    -0.4280 N.3     
  17 C17            6.5584    -2.6346     0.7010 C.3     
  18 C18            5.2984    -3.3715     0.2499 C.3     
  19 C19            8.7825    -1.9758     0.0066 C.3     
  20 C20            9.2888    -2.7561     1.2230 C.3     
  21 C21           10.6610    -2.2171     1.6336 C.3     
  22 N22           11.5994    -2.3593     0.5131 N.3     
  23 C23           11.1584    -1.5804    -0.6510 C.3     
  24 C24            9.8010    -2.1003    -1.1298 C.3     
  25 C25           12.9606    -1.9803     0.9151 C.3     
  26 O26            0.7741    -2.5076    -2.3913 O.2     
  27 N27           -0.5341    -3.4458    -0.7730 N.am    
  28 C28            0.4681    -2.7398     1.1569 C.ar    
  29 C29           -0.5791    -3.4836     0.6228 C.ar    
  30 C30            0.6364    -2.6250     2.5192 C.ar    
  31 C31           -0.2428    -3.2550     3.3827 C.ar    
  32 C32           -1.3015    -4.0071     2.8636 C.ar    
  33 C33           -1.4661    -4.1196     1.4833 C.ar    
  34 C34           -0.9895    -5.8322    -2.0662 C.ar    
  35 C35            0.1897    -5.9875    -2.7808 C.ar    
  36 C36           -1.6646    -6.9422    -1.5950 C.ar    
  37 C37           -1.1673    -8.2088    -1.8336 C.ar    
  38 C38            0.0119    -8.3695    -2.5479 C.ar    
  39 C39            0.6906    -7.2577    -3.0219 C.ar    
  40 O40            0.5004    -9.6157    -2.7827 O.3     
  41 O41            0.8528    -4.8956    -3.2442 O.3     
  42 C42            2.0601    -5.1303    -3.9718 C.3     
  43 C43           -0.2513   -10.7153    -2.2651 C.3     
  44 C44           13.9286    -2.2589    -0.2365 C.3     
  45 C45           12.9941    -0.4902     1.2604 C.3     
  46 C46           -2.2161    -4.6624     3.7495 C.1     
  47 N47           -2.9417    -5.1822     4.4522 N.1     
  48 O48           -1.1600    -0.6939     0.0207 O.3     
  49 C49           -2.3673     0.0703     0.0419 C.3     
  50 C50           -3.5698    -0.8757     0.0422 C.3     
  51 F51           -3.5398    -1.6684    -1.1102 F       
  52 F52           -3.5173    -1.6963     1.1740 F       
  53 S53           -1.6229    -4.2181    -1.7531 S.o2    
  54 O54           -2.8035    -4.3930    -0.9817 O.2     
  55 O55           -1.6017    -3.5305    -2.9965 O.2     
  56 H56           -0.9465     1.9166     0.0457 H       
  57 H57            3.3480    -0.5000    -0.0199 H       
  58 H58            3.3174     1.9611     0.0117 H       
  59 H59            1.1732     3.1684     0.0459 H       
  60 H60            2.9226    -3.2561     0.7061 H       
  61 H61            5.9596    -3.3743    -2.5338 H       
  62 H62            5.1783    -1.7923    -2.7940 H       
  63 H63            7.6542    -1.6218    -2.3170 H       
  64 H64            6.6443    -0.7429    -1.1433 H       
  65 H65            7.0321    -3.1853     1.5137 H       
  66 H66            6.2888    -1.6365     1.0462 H       
  67 H67            4.5575    -3.3531     1.0491 H       
  68 H68            5.5469    -4.4032     0.0009 H       
  69 H69            8.6589    -0.9261     0.2729 H       
  70 H70            8.5885    -2.6361     2.0496 H       
  71 H71            9.3741    -3.8124     0.9680 H       
  72 H72           10.5723    -1.1643     1.9017 H       
  73 H73           11.0307    -2.7800     2.4906 H       
  74 H74           11.0674    -0.5306    -0.3723 H       
  75 H75           11.8894    -1.6809    -1.4533 H       
  76 H76            9.8944    -3.1463    -1.4218 H       
  77 H77            9.4667    -1.5119    -1.9842 H       
  78 H78           13.2570    -2.5622     1.7877 H       
  79 H79            1.4559    -2.0428     2.9141 H       
  80 H80           -2.2837    -4.7005     1.0829 H       
  81 H81           -2.5823    -6.8193    -1.0390 H       
  82 H82           -1.6963    -9.0747    -1.4637 H       
  83 H83            1.6081    -7.3807    -3.5782 H       
  84 H84            2.7714    -5.6567    -3.3354 H       
  85 H85            1.8423    -5.7359    -4.8515 H       
  86 H86            2.4875    -4.1773    -4.2836 H       
  87 H87           -1.2520   -10.7068    -2.6971 H       
  88 H88            0.2476   -11.6496    -2.5224 H       
  89 H89           -0.3229   -10.6282    -1.1809 H       
  90 H90           13.6322    -1.6769    -1.1092 H       
  91 H91           14.9386    -1.9776     0.0617 H       
  92 H92           13.9048    -3.3205    -0.4825 H       
  93 H93           12.3044    -0.2917     2.0808 H       
  94 H94           14.0041    -0.2089     1.5586 H       
  95 H95           12.6977     0.0918     0.3877 H       
  96 H96           -2.3907     0.6879     0.9398 H       
  97 H97           -2.4082     0.7096    -0.8399 H       
  98 H98           -4.4907    -0.2929     0.0584 H       
@<TRIPOS>BOND
   1    1   31 1
   2    2    3 ar
   3    2    7 ar
   4    2   56 1
   5    3    4 ar
   6    3   48 1
   7    4    5 ar
   8    4    8 1
   9    5    6 ar
  10    5   57 1
  11    6    7 ar
  12    6   58 1
  13    7   59 1
  14    8    9 1
  15    8   10 1
  16    8   28 1
  17    9   26 2
  18    9   27 am
  19   10   11 am
  20   10   60 1
  21   11   12 am
  22   11   13 2
  23   12   14 1
  24   12   18 1
  25   14   15 1
  26   14   61 1
  27   14   62 1
  28   15   16 1
  29   15   63 1
  30   15   64 1
  31   16   17 1
  32   16   19 1
  33   17   18 1
  34   17   65 1
  35   17   66 1
  36   18   67 1
  37   18   68 1
  38   19   20 1
  39   19   24 1
  40   19   69 1
  41   20   21 1
  42   20   70 1
  43   20   71 1
  44   21   22 1
  45   21   72 1
  46   21   73 1
  47   22   23 1
  48   22   25 1
  49   23   24 1
  50   23   74 1
  51   23   75 1
  52   24   76 1
  53   24   77 1
  54   25   44 1
  55   25   45 1
  56   25   78 1
  57   27   53 am
  58   27   29 1
  59   28   29 ar
  60   28   30 ar
  61   29   33 ar
  62   30   31 ar
  63   30   79 1
  64   31   32 ar
  65   32   33 ar
  66   32   46 1
  67   33   80 1
  68   34   35 ar
  69   34   36 ar
  70   34   53 1
  71   35   41 1
  72   35   39 ar
  73   36   37 ar
  74   36   81 1
  75   37   38 ar
  76   37   82 1
  77   38   39 ar
  78   38   40 1
  79   39   83 1
  80   40   43 1
  81   41   42 1
  82   42   84 1
  83   42   85 1
  84   42   86 1
  85   43   87 1
  86   43   88 1
  87   43   89 1
  88   44   90 1
  89   44   91 1
  90   44   92 1
  91   45   93 1
  92   45   94 1
  93   45   95 1
  94   46   47 3
  95   48   49 1
  96   49   50 1
  97   49   96 1
  98   49   97 1
  99   50   51 1
 100   50   52 1
 101   50   98 1
 102   53   54 2
 103   53   55 2

#	End of record

