#	Name: ASD01120299
#	Creating user name:	WinNT
#	Creation time:	15. 06. 2019 18:59

#	Modifying user name:	WinNT
#	Modification time:	15. 06. 2019 18:59

#	Program:	/corina/corina34_cracker 3.40 0067  02.08.2006

@<TRIPOS>MOLECULE
ASD01120299
  37   39    0    0    0
SMALL
NO_CHARGES


@<TRIPOS>ATOM
   1 C1             1.8260     0.7201    -1.1435 C.3     
   2 O2             0.9036    -0.1647    -0.5044 O.3     
   3 C3             1.3060    -0.7399     0.6603 C.ar    
   4 C4             0.4596    -1.6091     1.3328 C.ar    
   5 C5             0.8673    -2.1937     2.5155 C.ar    
   6 C6             2.1254    -1.9114     3.0316 C.ar    
   7 C7             2.9724    -1.0413     2.3574 C.ar    
   8 C8             2.5648    -0.4615     1.1722 C.ar    
   9 N9             2.5393    -2.5029     4.2303 N.pl3   
  10 C10            3.2121    -1.7450     5.1844 C.ar    
  11 C11            3.3378    -0.3769     5.0249 C.ar    
  12 C12            4.0072     0.3813     5.9738 C.ar    
  13 C13            4.5575    -0.2116     7.0892 C.ar    
  14 C14            4.4471    -1.5866     7.2761 C.ar    
  15 C15            3.7645    -2.3651     6.3217 C.ar    
  16 C16            3.8115    -3.7046     6.7682 C.2     
  17 C17            4.4958    -3.7263     7.9442 C.2     
  18 N18            4.8836    -2.4372     8.2646 N.pl3   
  19 C19            4.7734    -4.9230     8.7459 C.2     
  20 O20            4.3801    -6.0108     8.3708 O.2     
  21 O21            5.4648    -4.8167     9.8991 O.3     
  22 N22            5.2682     0.6153     8.0907 N.pl3   
  23 O23            5.3659     1.8185     7.9282 O.2     
  24 O24            5.7551     0.0925     9.0771 O.2     
  25 H25            2.7408     0.1789    -1.3849 H       
  26 H26            1.3812     1.1087    -2.0597 H       
  27 H27            2.0593     1.5476    -0.4735 H       
  28 H28           -0.5188    -1.8285     0.9313 H       
  29 H29            0.2078    -2.8699     3.0393 H       
  30 H30            3.9510    -0.8212     2.7579 H       
  31 H31            3.2234     0.2149     0.6476 H       
  32 H32            2.3573    -3.4411     4.3964 H       
  33 H33            2.9126     0.1037     4.1562 H       
  34 H34            4.0984     1.4487     5.8368 H       
  35 H35            3.3811    -4.5585     6.2662 H       
  36 H36            5.3855    -2.1774     9.0530 H       
  37 H37            5.6231    -5.6330    10.3928 H       
@<TRIPOS>BOND
   1    1    2 1
   2    1   25 1
   3    1   26 1
   4    1   27 1
   5    2    3 1
   6    3    4 ar
   7    3    8 ar
   8    4    5 ar
   9    4   28 1
  10    5    6 ar
  11    5   29 1
  12    6    7 ar
  13    6    9 1
  14    7    8 ar
  15    7   30 1
  16    8   31 1
  17    9   10 1
  18    9   32 1
  19   10   11 ar
  20   10   15 ar
  21   11   12 ar
  22   11   33 1
  23   12   13 ar
  24   12   34 1
  25   13   14 ar
  26   13   22 1
  27   14   15 ar
  28   14   18 1
  29   15   16 1
  30   16   17 2
  31   16   35 1
  32   17   18 1
  33   17   19 1
  34   18   36 1
  35   19   20 2
  36   19   21 1
  37   21   37 1
  38   22   23 2
  39   22   24 2

#	End of record

