#	Name: ASD03082244
#	Creating user name:	WinNT
#	Creation time:	15. 06. 2019 20:27

#	Modifying user name:	WinNT
#	Modification time:	15. 06. 2019 20:27

#	Program:	/corina/corina34_cracker 3.40 0067  02.08.2006

@<TRIPOS>MOLECULE
ASD03082244
  53   55    0    0    0
SMALL
NO_CHARGES


@<TRIPOS>ATOM
   1 N1            -0.0007     1.4643     0.0720 N.pl3   
   2 N2            -0.0305     0.0643    -0.0327 N.2     
   3 C3             1.2001    -0.3591     0.1400 C.2     
   4 N4             1.9971     0.6912     0.3463 N.2     
   5 C5             1.2872     1.8017     0.3084 C.2     
   6 N6             1.6092    -1.6938     0.1128 N.pl3   
   7 C7             2.9636    -2.0131     0.2538 C.ar    
   8 C8             3.4795    -3.1450    -0.3646 C.ar    
   9 C9             4.8170    -3.4583    -0.2240 C.ar    
  10 C10            5.6438    -2.6454     0.5333 C.ar    
  11 C11            5.1319    -1.5168     1.1506 C.ar    
  12 C12            3.7959    -1.1961     1.0076 C.ar    
  13 C13            5.3772    -4.6861    -0.8947 C.3     
  14 F14            4.3586    -5.3403    -1.5958 F       
  15 F15            6.3891    -4.3106    -1.7847 F       
  16 F16            5.9040    -5.5472     0.0739 F       
  17 N17            3.6334     4.6629     0.4894 N.ar    
  18 C18            3.1659     3.4421     0.3279 C.ar    
  19 C19            1.8077     3.1736     0.4912 C.ar    
  20 C20            0.9426     4.2226     0.8305 C.ar    
  21 C21            1.4744     5.4861     0.9901 C.ar    
  22 C22            2.8421     5.6763     0.8102 C.ar    
  23 C23           -1.1383     2.3785    -0.0559 C.3     
  24 F24            6.9519    -2.9543     0.6702 F       
  25 C25           -1.7886     2.5626     1.2910 C.2     
  26 N26           -2.8627     3.3670     1.4165 N.am    
  27 O27           -1.3455     1.9868     2.2622 O.2     
  28 C28           -3.4949     3.5460     2.7258 C.3     
  29 C29           -3.3980     4.0625     0.2434 C.3     
  30 N30            3.3838     6.9443     0.9691 N.pl3   
  31 C31            2.5179     8.0716     1.3237 C.3     
  32 C32            3.3588     9.3448     1.4363 C.3     
  33 H33            0.9541    -2.3996    -0.0039 H       
  34 H34            2.8349    -3.7796    -0.9547 H       
  35 H35            5.7785    -0.8843     1.7406 H       
  36 H36            3.3979    -0.3132     1.4856 H       
  37 H37            3.8416     2.6412     0.0664 H       
  38 H38           -0.1146     4.0466     0.9636 H       
  39 H39            0.8370     6.3180     1.2512 H       
  40 H40           -0.7897     3.3427    -0.4259 H       
  41 H41           -1.8628     1.9613    -0.7552 H       
  42 H42           -3.0322     4.3879     3.2407 H       
  43 H43           -4.5587     3.7422     2.5919 H       
  44 H44           -3.3643     2.6410     3.3191 H       
  45 H45           -3.7028     3.3309    -0.5050 H       
  46 H46           -4.2596     4.6616     0.5380 H       
  47 H47           -2.6297     4.7123    -0.1756 H       
  48 H48            4.3357     7.0841     0.8454 H       
  49 H49            1.7596     8.2040     0.5521 H       
  50 H50            2.0330     7.8708     2.2791 H       
  51 H51            2.7146    10.1836     1.7001 H       
  52 H52            4.1172     9.2124     2.2079 H       
  53 H53            3.8437     9.5456     0.4809 H       
@<TRIPOS>BOND
   1    1    2 1
   2    1    5 1
   3    1   23 1
   4    2    3 2
   5    3    4 1
   6    3    6 1
   7    4    5 2
   8    5   19 1
   9    6    7 1
  10    6   33 1
  11    7    8 ar
  12    7   12 ar
  13    8    9 ar
  14    8   34 1
  15    9   10 ar
  16    9   13 1
  17   10   11 ar
  18   10   24 1
  19   11   12 ar
  20   11   35 1
  21   12   36 1
  22   13   14 1
  23   13   15 1
  24   13   16 1
  25   17   18 ar
  26   17   22 ar
  27   18   19 ar
  28   18   37 1
  29   19   20 ar
  30   20   21 ar
  31   20   38 1
  32   21   22 ar
  33   21   39 1
  34   22   30 1
  35   23   25 1
  36   23   40 1
  37   23   41 1
  38   25   26 am
  39   25   27 2
  40   26   28 1
  41   26   29 1
  42   28   42 1
  43   28   43 1
  44   28   44 1
  45   29   45 1
  46   29   46 1
  47   29   47 1
  48   30   31 1
  49   30   48 1
  50   31   32 1
  51   31   49 1
  52   31   50 1
  53   32   51 1
  54   32   52 1
  55   32   53 1

#	End of record

