#	Name: ASD02198657
#	Creating user name:	WinNT
#	Creation time:	15. 06. 2019 20:19

#	Modifying user name:	WinNT
#	Modification time:	15. 06. 2019 20:19

#	Program:	/corina/corina34_cracker 3.40 0067  02.08.2006

@<TRIPOS>MOLECULE
ASD02198657
  55   59    0    0    0
SMALL
NO_CHARGES


@<TRIPOS>ATOM
   1 C1             0.0066     1.5065     0.1347 C.2     
   2 C2             0.0732     0.1664    -0.0932 C.2     
   3 N3            -1.0535    -0.5631    -0.2634 N.pl3   
   4 N4            -2.2312    -0.0589    -0.2235 N.2     
   5 C5            -2.4380     1.2244    -0.0106 C.2     
   6 C6            -1.2793     2.1042     0.1930 C.2     
   7 C7            -0.9266    -1.9371    -0.4952 C.ar    
   8 C8            -1.5128    -2.5101    -1.6193 C.ar    
   9 C9            -1.3872    -3.8678    -1.8479 C.ar    
  10 C10           -0.6767    -4.6592    -0.9556 C.ar    
  11 C11           -0.0904    -4.0860     0.1689 C.ar    
  12 C12           -0.2102    -2.7288     0.3945 C.ar    
  13 N13           -0.5506    -6.0327    -1.1865 N.3     
  14 C14           -1.8684    -6.6830    -1.2290 C.3     
  15 C15           -1.6876    -8.1706    -1.5424 C.3     
  16 O16           -0.8255    -8.7574    -0.5638 O.3     
  17 C17            0.4669    -8.1487    -0.4959 C.3     
  18 C18            0.3078    -6.6609    -0.1718 C.3     
  19 C19           -3.8109     1.7683     0.0278 C.2     
  20 N20           -4.3734     2.4813     1.0489 N.pl3   
  21 N21           -5.6847     2.8004     0.6747 N.2     
  22 C22           -5.9143     2.3076    -0.5163 C.2     
  23 C23           -4.7632     1.6574    -0.9614 C.2     
  24 C24           -3.7503     2.8303     2.2538 C.ar    
  25 C25           -3.9201     4.1035     2.7817 C.ar    
  26 C26           -3.3043     4.4446     3.9699 C.ar    
  27 C27           -2.5193     3.5198     4.6339 C.ar    
  28 C28           -2.3479     2.2513     4.1107 C.ar    
  29 C29           -2.9660     1.9021     2.9260 C.ar    
  30 O30           -1.4166     3.3023     0.3946 O.2     
  31 O31            1.1343     2.2471     0.3064 O.3     
  32 C32            2.3823     1.5545     0.2364 C.3     
  33 F33           -2.2049    -1.7400    -2.4871 F       
  34 F34            0.6009    -4.8565     1.0370 F       
  35 H35            1.0363    -0.3202    -0.1389 H       
  36 H36           -1.8422    -4.3128    -2.7205 H       
  37 H37            0.2449    -2.2841     1.2672 H       
  38 H38           -2.3604    -6.5718    -0.2627 H       
  39 H39           -2.4784    -6.2192    -2.0042 H       
  40 H40           -2.6571    -8.6681    -1.5186 H       
  41 H41           -1.2445    -8.2828    -2.5320 H       
  42 H42            1.0555    -8.6304     0.2849 H       
  43 H43            0.9726    -8.2603    -1.4550 H       
  44 H44            1.2865    -6.1810    -0.1753 H       
  45 H45           -0.1494    -6.5494     0.8114 H       
  46 H46           -6.8405     2.3937    -1.0651 H       
  47 H47           -4.6426     1.1518    -1.9081 H       
  48 H48           -4.5327     4.8263     2.2634 H       
  49 H49           -3.4356     5.4347     4.3807 H       
  50 H50           -2.0388     3.7889     5.5629 H       
  51 H51           -1.7337     1.5315     4.6312 H       
  52 H52           -2.8318     0.9112     2.5178 H       
  53 H53            3.1987     2.2602     0.3898 H       
  54 H54            2.4156     0.7867     1.0094 H       
  55 H55            2.4845     1.0882    -0.7435 H       
@<TRIPOS>BOND
   1    1    2 2
   2    1   31 1
   3    1    6 1
   4    2    3 1
   5    2   35 1
   6    3    4 1
   7    3    7 1
   8    4    5 2
   9    5    6 1
  10    5   19 1
  11    6   30 2
  12    7    8 ar
  13    7   12 ar
  14    8    9 ar
  15    8   33 1
  16    9   10 ar
  17    9   36 1
  18   10   11 ar
  19   10   13 1
  20   11   12 ar
  21   11   34 1
  22   12   37 1
  23   13   14 1
  24   13   18 1
  25   14   15 1
  26   14   38 1
  27   14   39 1
  28   15   16 1
  29   15   40 1
  30   15   41 1
  31   16   17 1
  32   17   18 1
  33   17   42 1
  34   17   43 1
  35   18   44 1
  36   18   45 1
  37   19   20 1
  38   19   23 2
  39   20   21 1
  40   20   24 1
  41   21   22 2
  42   22   23 1
  43   22   46 1
  44   23   47 1
  45   24   25 ar
  46   24   29 ar
  47   25   26 ar
  48   25   48 1
  49   26   27 ar
  50   26   49 1
  51   27   28 ar
  52   27   50 1
  53   28   29 ar
  54   28   51 1
  55   29   52 1
  56   31   32 1
  57   32   53 1
  58   32   54 1
  59   32   55 1

#	End of record

