#	Name: ASD01880823
#	Creating user name:	WinNT
#	Creation time:	15. 06. 2019 19:41

#	Modifying user name:	WinNT
#	Modification time:	15. 06. 2019 19:41

#	Program:	/corina/corina34_cracker 3.40 0067  02.08.2006

@<TRIPOS>MOLECULE
ASD01880823
  61   64    0    0    0
SMALL
NO_CHARGES


@<TRIPOS>ATOM
   1 N1             0.3072     1.3099    -0.8097 N.ar    
   2 C2             0.2695    -0.0051    -0.7372 C.ar    
   3 N3             1.0825    -0.6815     0.0491 N.ar    
   4 C4             1.9772    -0.0594     0.8038 C.ar    
   5 C5             2.0533     1.3190     0.7607 C.ar    
   6 C6             1.1774     2.0050    -0.0829 C.ar    
   7 C7             3.0566     2.0638     1.6032 C.3     
   8 O8             4.2861     2.1837     0.8850 O.3     
   9 C9             5.3022     2.8334     1.5072 C.ar    
  10 C10            6.5269     2.9856     0.8643 C.ar    
  11 C11            7.5538     3.6434     1.4946 C.ar    
  12 C12            7.3774     4.1629     2.7814 C.ar    
  13 C13            6.1452     4.0076     3.4224 C.ar    
  14 C14            5.1169     3.3511     2.7835 C.ar    
  15 C15            8.9695     3.9740     1.0924 C.3     
  16 N16            9.5579     4.7001     2.2237 N.am    
  17 C17            8.6359     4.8068     3.1958 C.2     
  18 O18            8.8150     5.3570     4.2652 O.2     
  19 C19           -0.7316    -0.7566    -1.5764 C.3     
  20 C20            2.8998    -0.8466     1.6983 C.3     
  21 C21            5.9408     4.5615     4.8089 C.3     
  22 N22            1.2146     3.3876    -0.1619 N.3     
  23 C23           -0.0189     3.9792     0.3749 C.3     
  24 C24            0.0944     5.5052     0.3430 C.3     
  25 N25            0.3293     5.9476    -1.0386 N.3     
  26 C26            1.5629     5.3560    -1.5754 C.3     
  27 C27            1.4495     3.8300    -1.5435 C.3     
  28 C28            0.3688     7.4136    -1.1224 C.3     
  29 C29           10.9498     6.6517     1.7388 C.3     
  30 C30           10.9253     5.2223     2.2838 C.3     
  31 H31            2.6717     3.0573     1.8330 H       
  32 H32            3.2292     1.5175     2.5305 H       
  33 H33            6.6695     2.5865    -0.1290 H       
  34 H34            4.1648     3.2317     3.2793 H       
  35 H35            9.5290     3.0578     0.9035 H       
  36 H36            8.9690     4.6036     0.2026 H       
  37 H37           -0.2871    -0.9994    -2.5416 H       
  38 H38           -1.0162    -1.6765    -1.0657 H       
  39 H39           -1.6155    -0.1373    -1.7290 H       
  40 H40            3.8085    -1.0985     1.1515 H       
  41 H41            3.1559    -0.2484     2.5727 H       
  42 H42            2.4023    -1.7624     2.0176 H       
  43 H43            5.5700     5.5843     4.7406 H       
  44 H44            5.2157     3.9470     5.3424 H       
  45 H45            6.8889     4.5540     5.3466 H       
  46 H46           -0.8674     3.6648    -0.2329 H       
  47 H47           -0.1643     3.6467     1.4027 H       
  48 H48           -0.8308     5.9463     0.7137 H       
  49 H49            0.9262     5.8213     0.9725 H       
  50 H50            1.7083     5.6885    -2.6032 H       
  51 H51            2.4113     5.6704    -0.9676 H       
  52 H52            2.3747     3.3889    -1.9142 H       
  53 H53            0.6177     3.5139    -2.1730 H       
  54 H54            1.1738     7.7921    -0.4925 H       
  55 H55            0.5439     7.7139    -2.1555 H       
  56 H56           -0.5823     7.8227    -0.7814 H       
  57 H57           10.2938     7.2811     2.3402 H       
  58 H58           11.9672     7.0402     1.7836 H       
  59 H59           10.6059     6.6521     0.7045 H       
  60 H60           11.2692     5.2218     3.3181 H       
  61 H61           11.5814     4.5929     1.6825 H       
@<TRIPOS>BOND
   1    1    2 ar
   2    1    6 ar
   3    2    3 ar
   4    2   19 1
   5    3    4 ar
   6    4    5 ar
   7    4   20 1
   8    5    6 ar
   9    5    7 1
  10    6   22 1
  11    7    8 1
  12    7   31 1
  13    7   32 1
  14    8    9 1
  15    9   10 ar
  16    9   14 ar
  17   10   11 ar
  18   10   33 1
  19   11   12 ar
  20   11   15 1
  21   12   13 ar
  22   12   17 1
  23   13   14 ar
  24   13   21 1
  25   14   34 1
  26   15   16 1
  27   15   35 1
  28   15   36 1
  29   16   17 am
  30   16   30 1
  31   17   18 2
  32   19   37 1
  33   19   38 1
  34   19   39 1
  35   20   40 1
  36   20   41 1
  37   20   42 1
  38   21   43 1
  39   21   44 1
  40   21   45 1
  41   22   23 1
  42   22   27 1
  43   23   24 1
  44   23   46 1
  45   23   47 1
  46   24   25 1
  47   24   48 1
  48   24   49 1
  49   25   26 1
  50   25   28 1
  51   26   27 1
  52   26   50 1
  53   26   51 1
  54   27   52 1
  55   27   53 1
  56   28   54 1
  57   28   55 1
  58   28   56 1
  59   29   30 1
  60   29   57 1
  61   29   58 1
  62   29   59 1
  63   30   60 1
  64   30   61 1

#	End of record

