#	Name: ASD03331053
#	Creating user name:	WinNT
#	Creation time:	15. 06. 2019 20:38

#	Modifying user name:	WinNT
#	Modification time:	15. 06. 2019 20:38

#	Program:	/corina/corina34_cracker 3.40 0067  02.08.2006

@<TRIPOS>MOLECULE
ASD03331053
  70   72    0    0    0
SMALL
NO_CHARGES


@<TRIPOS>ATOM
   1 N1            -1.6201     2.3483    -1.6960 N.pl3   
   2 C2            -1.2528     1.0735    -1.3985 C.2     
   3 C3             0.1593     0.5940    -1.1853 C.3     
   4 N4             0.8523     1.5230    -0.2791 N.3     
   5 C5             1.4904     2.6114    -1.0220 C.3     
   6 C6             0.6699     2.9866    -2.2528 C.3     
   7 C7            -0.7102     3.4904    -1.8220 C.3     
   8 C8            -2.9769     2.3596    -1.8397 C.2     
   9 N9            -3.4313     1.1477    -1.6225 N.2     
  10 C10           -2.3923     0.3300    -1.3446 C.2     
  11 C11           -2.4771    -1.1089    -1.0385 C.2     
  12 O12           -1.4650    -1.7414    -0.8041 O.2     
  13 N13           -3.6761    -1.7241    -1.0184 N.am    
  14 C14            1.8294     0.8125     0.5567 C.3     
  15 C15           -5.0136    -3.7255    -1.3260 C.2     
  16 C16           -3.7603    -3.1547    -0.7140 C.3     
  17 C17           -3.7977    -3.3521     0.8027 C.3     
  18 C18           -4.9320    -2.5155     1.3981 C.3     
  19 O19           -6.0942    -3.2477    -1.0519 O.2     
  20 C20           -4.0341    -4.8303     1.1189 C.3     
  21 C21           -2.4645    -2.9080     1.4079 C.3     
  22 N22           -4.9337    -4.7669    -2.1778 N.am    
  23 C23           -6.1568    -5.3882    -2.6918 C.3     
  24 C24           -6.5774    -4.6910    -3.9872 C.3     
  25 O25           -5.5874    -4.9166    -4.9927 O.3     
  26 C26           -3.6238    -5.2776    -2.5896 C.3     
  27 C27           -3.2407    -6.4684    -1.7086 C.3     
  28 C28           -3.7985     3.5407    -2.1825 C.ar    
  29 C29           -4.7886     3.4459    -3.1642 C.ar    
  30 C30           -5.5529     4.5537    -3.4790 C.ar    
  31 C31           -5.3392     5.7532    -2.8248 C.ar    
  32 C32           -4.3593     5.8531    -1.8517 C.ar    
  33 C33           -3.5925     4.7526    -1.5234 C.ar    
  34 F34           -4.9979     2.2747    -3.8041 F       
  35 Cl35          -4.0987     7.3640    -1.0374 Cl      
  36 H36            0.1429    -0.4022    -0.7431 H       
  37 H37            0.6810     0.5606    -2.1417 H       
  38 H38            1.5815     3.4825    -0.3733 H       
  39 H39            2.4847     2.2951    -1.3373 H       
  40 H40            1.1855     3.7711    -2.8066 H       
  41 H41            0.5529     2.1108    -2.8911 H       
  42 H42           -1.0956     4.1824    -2.5708 H       
  43 H43           -0.6289     3.9993    -0.8615 H       
  44 H44           -4.4832    -1.2197    -1.2053 H       
  45 H45            2.5280     0.2714    -0.0814 H       
  46 H46            2.3765     1.5313     1.1667 H       
  47 H47            1.3087     0.1077     1.2049 H       
  48 H48           -2.8898    -3.6656    -1.1256 H       
  49 H49           -5.8818    -2.8320     0.9670 H       
  50 H50           -4.9586    -2.6562     2.4786 H       
  51 H51           -4.7636    -1.4625     1.1728 H       
  52 H52           -3.1427    -5.4035     0.8638 H       
  53 H53           -4.2479    -4.9449     2.1816 H       
  54 H54           -4.8800    -5.1957     0.5367 H       
  55 H55           -2.2961    -1.8549     1.1826 H       
  56 H56           -2.4912    -3.0486     2.4884 H       
  57 H57           -1.6565    -3.5040     0.9837 H       
  58 H58           -5.9721    -6.4439    -2.8909 H       
  59 H59           -6.9519    -5.2916    -1.9525 H       
  60 H60           -7.5336    -5.0929    -4.3222 H       
  61 H61           -6.6760    -3.6204    -3.8081 H       
  62 H62           -5.7889    -4.5024    -5.8429 H       
  63 H63           -3.6690    -5.5958    -3.6311 H       
  64 H64           -2.8770    -4.4909    -2.4821 H       
  65 H65           -2.2375    -6.8053    -1.9694 H       
  66 H66           -3.2621    -6.1672    -0.6613 H       
  67 H67           -3.9497    -7.2809    -1.8676 H       
  68 H68           -6.3183     4.4825    -4.2376 H       
  69 H69           -5.9390     6.6159    -3.0743 H       
  70 H70           -2.8320     4.8311    -0.7606 H       
@<TRIPOS>BOND
   1    1    2 1
   2    1    7 1
   3    1    8 1
   4    2    3 1
   5    2   10 2
   6    3    4 1
   7    3   36 1
   8    3   37 1
   9    4    5 1
  10    4   14 1
  11    5    6 1
  12    5   38 1
  13    5   39 1
  14    6    7 1
  15    6   40 1
  16    6   41 1
  17    7   42 1
  18    7   43 1
  19    8    9 2
  20    8   28 1
  21    9   10 1
  22   10   11 1
  23   11   12 2
  24   11   13 am
  25   13   16 1
  26   13   44 1
  27   14   45 1
  28   14   46 1
  29   14   47 1
  30   15   19 2
  31   15   22 am
  32   15   16 1
  33   16   17 1
  34   16   48 1
  35   17   18 1
  36   17   20 1
  37   17   21 1
  38   18   49 1
  39   18   50 1
  40   18   51 1
  41   20   52 1
  42   20   53 1
  43   20   54 1
  44   21   55 1
  45   21   56 1
  46   21   57 1
  47   22   23 1
  48   22   26 1
  49   23   24 1
  50   23   58 1
  51   23   59 1
  52   24   25 1
  53   24   60 1
  54   24   61 1
  55   25   62 1
  56   26   27 1
  57   26   63 1
  58   26   64 1
  59   27   65 1
  60   27   66 1
  61   27   67 1
  62   28   29 ar
  63   28   33 ar
  64   29   30 ar
  65   29   34 1
  66   30   31 ar
  67   30   68 1
  68   31   32 ar
  69   31   69 1
  70   32   33 ar
  71   32   35 1
  72   33   70 1

#	End of record

