#	Name: ASD01209149
#	Creating user name:	WinNT
#	Creation time:	15. 06. 2019 19:11

#	Modifying user name:	WinNT
#	Modification time:	15. 06. 2019 19:11

#	Program:	/corina/corina34_cracker 3.40 0067  02.08.2006

@<TRIPOS>MOLECULE
ASD01209149
  68   71    0    0    0
SMALL
NO_CHARGES


@<TRIPOS>ATOM
   1 O1             0.5022     1.7690     0.2271 O.3     
   2 C2             2.8419     2.4420     1.6217 C.3     
   3 C3            -1.2828     6.0386    -9.2797 C.ar    
   4 C4            -0.0070     6.2648    -9.7749 C.ar    
   5 C5             1.0915     6.1990    -8.9294 C.ar    
   6 C6             0.9178     5.9079    -7.5865 C.ar    
   7 C7            -0.3639     5.6796    -7.0843 C.ar    
   8 C8            -1.4659     5.7515    -7.9369 C.ar    
   9 O9            -2.3552     6.1042   -10.1119 O.3     
  10 C10           -2.1104     6.5327   -11.4530 C.3     
  11 O11            2.3394     6.4206    -9.4198 O.3     
  12 C12            3.2084     5.3764    -9.4482 C.ar    
  13 C13            4.5290     5.5811    -9.8216 C.ar    
  14 C14           -0.5542     5.3681    -5.6517 C.2     
  15 N15            0.5112     5.3041    -4.8287 N.am    
  16 O16           -1.6716     5.1695    -5.2160 O.2     
  17 C17            0.3310     5.0089    -3.4712 C.2     
  18 P18            1.8397     2.6580     0.1143 P.3     
  19 O19            2.6222     2.2245    -1.0647 O.2     
  20 C20            5.4105     4.5179    -9.8492 C.ar    
  21 C21            4.9778     3.2505    -9.5052 C.ar    
  22 C22            3.6623     3.0437    -9.1328 C.ar    
  23 C23            2.7781     4.1044    -9.0985 C.ar    
  24 S24            6.1046     1.8964    -9.5421 S.o2    
  25 O25            5.2795     0.7596    -9.7568 O.2     
  26 O26            7.0841     2.2815   -10.4968 O.2     
  27 C27            6.8205     1.8577    -7.8758 C.3     
  28 C28            1.3881     4.4147    -0.0686 C.3     
  29 N29            1.2800     4.9179    -2.5694 N.2     
  30 C30           -0.8974     4.7645    -2.8362 C.2     
  31 C31           -0.6478     4.5202    -1.5298 C.2     
  32 N32            0.6855     4.6085    -1.3394 N.pl3   
  33 C33            0.5186     0.3409     0.2753 C.3     
  34 C34           -0.9152    -0.1824     0.3815 C.3     
  35 C35           -1.6985     5.3376   -12.3344 C.3     
  36 O36           -2.7109     5.1815   -13.3429 O.3     
  37 C37           -3.3135     6.4786   -13.5397 C.3     
  38 C38           -3.4162     7.0513   -12.1031 C.3     
  39 H39            3.7475     3.0439     1.5453 H       
  40 H40            2.2656     2.7613     2.4900 H       
  41 H41            3.1119     1.3916     1.7310 H       
  42 H42            0.1318     6.4925   -10.8215 H       
  43 H43            1.7732     5.8565    -6.9292 H       
  44 H44           -2.4596     5.5755    -7.5522 H       
  45 H45           -1.3402     7.3038   -11.4716 H       
  46 H46            4.8674     6.5708   -10.0907 H       
  47 H47            1.4028     5.4625    -5.1763 H       
  48 H48            6.4384     4.6767   -10.1401 H       
  49 H49            3.3268     2.0527    -8.8650 H       
  50 H50            1.7507     3.9424    -8.8076 H       
  51 H51            6.0276     1.7075    -7.1431 H       
  52 H52            7.5381     1.0401    -7.8075 H       
  53 H53            7.3260     2.8024    -7.6755 H       
  54 H54            0.7379     4.7103     0.7548 H       
  55 H55            2.2910     5.0252    -0.0558 H       
  56 H56           -1.8691     4.7706    -3.3076 H       
  57 H57           -1.3847     4.2965    -0.7726 H       
  58 H58            0.9810    -0.0479    -0.6319 H       
  59 H59            1.0902     0.0132     1.1436 H       
  60 H60           -0.9027    -1.2717     0.4182 H       
  61 H61           -1.3776     0.2065     1.2887 H       
  62 H62           -1.4868     0.1453    -0.4869 H       
  63 H63           -0.7354     5.5379   -12.8039 H       
  64 H64           -1.6367     4.4339   -11.7282 H       
  65 H65           -2.6750     7.1085   -14.1592 H       
  66 H66           -4.3035     6.3785   -13.9847 H       
  67 H67           -4.2912     6.6549   -11.5880 H       
  68 H68           -3.4366     8.1410   -12.1192 H       
@<TRIPOS>BOND
   1    1   33 1
   2    1   18 1
   3    2   18 1
   4    2   39 1
   5    2   40 1
   6    2   41 1
   7    3    4 ar
   8    3    9 1
   9    3    8 ar
  10    4    5 ar
  11    4   42 1
  12    5    6 ar
  13    5   11 1
  14    6    7 ar
  15    6   43 1
  16    7    8 ar
  17    7   14 1
  18    8   44 1
  19    9   10 1
  20   10   35 1
  21   10   38 1
  22   10   45 1
  23   11   12 1
  24   12   13 ar
  25   12   23 ar
  26   13   20 ar
  27   13   46 1
  28   14   15 am
  29   14   16 2
  30   15   17 1
  31   15   47 1
  32   17   29 2
  33   17   30 1
  34   18   19 2
  35   18   28 1
  36   20   21 ar
  37   20   48 1
  38   21   22 ar
  39   21   24 1
  40   22   23 ar
  41   22   49 1
  42   23   50 1
  43   24   25 2
  44   24   26 2
  45   24   27 1
  46   27   51 1
  47   27   52 1
  48   27   53 1
  49   28   32 1
  50   28   54 1
  51   28   55 1
  52   29   32 1
  53   30   31 2
  54   30   56 1
  55   31   32 1
  56   31   57 1
  57   33   34 1
  58   33   58 1
  59   33   59 1
  60   34   60 1
  61   34   61 1
  62   34   62 1
  63   35   36 1
  64   35   63 1
  65   35   64 1
  66   36   37 1
  67   37   38 1
  68   37   65 1
  69   37   66 1
  70   38   67 1
  71   38   68 1

#	End of record

