#	Name: ASD01150473
#	Creating user name:	WinNT
#	Creation time:	15. 06. 2019 19:04

#	Modifying user name:	WinNT
#	Modification time:	15. 06. 2019 19:04

#	Program:	/corina/corina34_cracker 3.40 0067  02.08.2006

@<TRIPOS>MOLECULE
ASD01150473
  48   50    0    0    0
SMALL
NO_CHARGES


@<TRIPOS>ATOM
   1 C1             1.9144     1.4015     0.9688 C.ar    
   2 C2             1.9596     0.0213     0.9430 C.ar    
   3 C3             0.4927     0.0046    -0.9573 C.ar    
   4 C4             0.4446     1.3911    -0.9341 C.ar    
   5 C5             1.1564     2.0910     0.0299 C.ar    
   6 N6             1.1106     3.4892     0.0568 N.am    
   7 C7            -0.0779     4.1147    -0.0077 C.2     
   8 N8            -0.1589     5.4581     0.0162 N.am    
   9 C9             0.9637     6.2013     0.1061 C.2     
  10 C10            2.2668     5.5231     0.1771 C.2     
  11 N11            2.3024     4.2168     0.1564 N.2     
  12 O12            0.8988     7.4163     0.1279 O.2     
  13 C13           -1.4669     6.1139    -0.0561 C.3     
  14 O14           -1.0968     3.4557    -0.0895 O.2     
  15 C15           -2.0091     6.3080     1.3366 C.ar    
  16 C16           -1.7295     7.4626     2.0395 C.ar    
  17 N17           -2.1993     7.6424     3.2595 N.ar    
  18 C18           -2.9513     6.7317     3.8547 C.ar    
  19 C19           -3.2727     5.5457     3.2066 C.ar    
  20 C20           -2.8000     5.3298     1.9241 C.ar    
  21 O21            3.4152     6.2432     0.2677 O.3     
  22 C22            4.6387     5.5077     0.3322 C.3     
  23 C23            1.2519    -0.6785    -0.0157 C.ar    
  24 N24           -0.2232    -0.7049    -1.9279 N.am    
  25 C25            0.2667    -1.8622    -2.4148 C.2     
  26 C26           -0.5545    -2.6831    -3.3755 C.3     
  27 O27            1.3685    -2.2429    -2.0799 O.2     
  28 O28           -3.4129     6.9577     5.1103 O.3     
  29 C29           -3.0471     8.1959     5.7229 C.3     
  30 H30            2.4650     1.9454     1.7220 H       
  31 H31            2.5496    -0.5122     1.6735 H       
  32 H32           -0.1452     1.9245    -1.6648 H       
  33 H33           -1.3609     7.0833    -0.5430 H       
  34 H34           -2.1539     5.4921    -0.6301 H       
  35 H35           -1.1181     8.2284     1.5854 H       
  36 H36           -3.8868     4.8040     3.6956 H       
  37 H37           -3.0339     4.4176     1.3955 H       
  38 H38            4.6282     4.8613     1.2098 H       
  39 H39            4.7447     4.8993    -0.5659 H       
  40 H40            5.4764     6.2015     0.4020 H       
  41 H41            1.2893    -1.7577    -0.0331 H       
  42 H42           -1.0721    -0.3638    -2.2503 H       
  43 H43           -1.5071    -2.1853    -3.5565 H       
  44 H44           -0.0149    -2.7885    -4.3166 H       
  45 H45           -0.7354    -3.6694    -2.9480 H       
  46 H46           -1.9613     8.2592     5.7942 H       
  47 H47           -3.4206     9.0237     5.1202 H       
  48 H48           -3.4805     8.2491     6.7216 H       
@<TRIPOS>BOND
   1    1    2 ar
   2    1    5 ar
   3    1   30 1
   4    2   23 ar
   5    2   31 1
   6    3    4 ar
   7    3   24 1
   8    3   23 ar
   9    4    5 ar
  10    4   32 1
  11    5    6 1
  12    6    7 am
  13    6   11 1
  14    7    8 am
  15    7   14 2
  16    8    9 am
  17    8   13 1
  18    9   10 1
  19    9   12 2
  20   10   11 2
  21   10   21 1
  22   13   15 1
  23   13   33 1
  24   13   34 1
  25   15   16 ar
  26   15   20 ar
  27   16   17 ar
  28   16   35 1
  29   17   18 ar
  30   18   19 ar
  31   18   28 1
  32   19   20 ar
  33   19   36 1
  34   20   37 1
  35   21   22 1
  36   22   38 1
  37   22   39 1
  38   22   40 1
  39   23   41 1
  40   24   25 am
  41   24   42 1
  42   25   26 1
  43   25   27 2
  44   26   43 1
  45   26   44 1
  46   26   45 1
  47   28   29 1
  48   29   46 1
  49   29   47 1
  50   29   48 1

#	End of record

