#	Name: ASD00170096
#	Creating user name:	WinNT
#	Creation time:	15. 06. 2019 18:31

#	Modifying user name:	WinNT
#	Modification time:	15. 06. 2019 18:31

#	Program:	/corina/corina34_cracker 3.40 0067  02.08.2006

@<TRIPOS>MOLECULE
ASD00170096
  49   52    0    0    0
SMALL
NO_CHARGES


@<TRIPOS>ATOM
   1 C1            -0.0090     1.3517    -0.0850 C.2     
   2 C2             0.0160     0.0187     0.1886 C.2     
   3 C3            -1.3172    -0.5543     0.2719 C.2     
   4 C4            -2.3114     0.3736     0.0564 C.2     
   5 S5            -1.6615     1.9201    -0.2365 S.3     
   6 N6            -3.6581     0.0887     0.0799 N.pl3   
   7 C7             1.1882     2.2023    -0.2281 C.ar    
   8 C8             2.2525     1.7866    -1.0320 C.ar    
   9 C9             3.3684     2.5868    -1.1611 C.ar    
  10 C10            3.4356     3.7986    -0.4962 C.ar    
  11 C11            2.3852     4.2167     0.3018 C.ar    
  12 C12            1.2604     3.4298     0.4352 C.ar    
  13 C13           -1.5657    -1.9151     0.5437 C.2     
  14 O14           -1.7353    -2.6963    -0.3712 O.2     
  15 C15            1.2600    -0.7595     0.3790 C.ar    
  16 C16            2.0753    -0.5178     1.4855 C.ar    
  17 C17            3.2336    -1.2472     1.6575 C.ar    
  18 C18            3.5878    -2.2162     0.7356 C.ar    
  19 C19            2.7840    -2.4604    -0.3638 C.ar    
  20 C20            1.6199    -1.7422    -0.5441 C.ar    
  21 C21           -1.6211    -2.4008     1.9693 C.3     
  22 C22            4.8547    -3.0088     0.9295 C.3     
  23 C23           -1.7714    -3.9003     1.9836 C.ar    
  24 C24           -0.6492    -4.7073     1.9957 C.ar    
  25 C25           -0.7871    -6.0827     2.0088 C.ar    
  26 C26           -2.0472    -6.6510     2.0102 C.ar    
  27 C27           -3.1695    -5.8439     1.9990 C.ar    
  28 C28           -3.0316    -4.4685     1.9903 C.ar    
  29 H29           -3.9620    -0.7982     0.3291 H       
  30 H30           -4.3032     0.7748    -0.1527 H       
  31 H31            2.2017     0.8408    -1.5509 H       
  32 H32            4.1919     2.2667    -1.7822 H       
  33 H33            4.3122     4.4208    -0.6004 H       
  34 H34            2.4446     5.1635     0.8180 H       
  35 H35            0.4413     3.7575     1.0581 H       
  36 H36            1.8003     0.2389     2.2054 H       
  37 H37            3.8655    -1.0611     2.5133 H       
  38 H38            3.0663    -3.2177    -1.0802 H       
  39 H39            0.9931    -1.9340    -1.4024 H       
  40 H40           -0.7012    -2.1230     2.4838 H       
  41 H41           -2.4723    -1.9455     2.4755 H       
  42 H42            4.6382    -3.9027     1.5144 H       
  43 H43            5.2544    -3.2986    -0.0423 H       
  44 H44            5.5881    -2.3985     1.4566 H       
  45 H45            0.3353    -4.2633     1.9946 H       
  46 H46            0.0897    -6.7133     2.0176 H       
  47 H47           -2.1550    -7.7256     2.0197 H       
  48 H48           -4.1540    -6.2880     1.9997 H       
  49 H49           -3.9083    -3.8379     1.9815 H       
@<TRIPOS>BOND
   1    1    2 2
   2    1    7 1
   3    1    5 1
   4    2    3 1
   5    2   15 1
   6    3    4 2
   7    3   13 1
   8    4    5 1
   9    4    6 1
  10    6   29 1
  11    6   30 1
  12    7    8 ar
  13    7   12 ar
  14    8    9 ar
  15    8   31 1
  16    9   10 ar
  17    9   32 1
  18   10   11 ar
  19   10   33 1
  20   11   12 ar
  21   11   34 1
  22   12   35 1
  23   13   14 2
  24   13   21 1
  25   15   16 ar
  26   15   20 ar
  27   16   17 ar
  28   16   36 1
  29   17   18 ar
  30   17   37 1
  31   18   19 ar
  32   18   22 1
  33   19   20 ar
  34   19   38 1
  35   20   39 1
  36   21   23 1
  37   21   40 1
  38   21   41 1
  39   22   42 1
  40   22   43 1
  41   22   44 1
  42   23   24 ar
  43   23   28 ar
  44   24   25 ar
  45   24   45 1
  46   25   26 ar
  47   25   46 1
  48   26   27 ar
  49   26   47 1
  50   27   28 ar
  51   27   48 1
  52   28   49 1

#	End of record

