#	Name: ASD03731637
#	Creating user name:	WinNT
#	Creation time:	15. 06. 2019 20:46

#	Modifying user name:	WinNT
#	Modification time:	15. 06. 2019 20:46

#	Program:	/corina/corina34_cracker 3.40 0067  02.08.2006

@<TRIPOS>MOLECULE
ASD03731637
  40   41    0    0    0
SMALL
NO_CHARGES


@<TRIPOS>ATOM
   1 C1            -0.1361     1.4672     0.0333 C.2     
   2 C2            -0.0850    -0.0063     0.0191 C.ar    
   3 C3             1.1402    -0.6648    -0.1384 C.ar    
   4 C4             1.1828    -2.0445    -0.1510 C.ar    
   5 C5             0.0129    -2.7784    -0.0079 C.ar    
   6 C6            -1.2079    -2.1271     0.1491 C.ar    
   7 C7            -1.2595    -0.7502     0.1687 C.ar    
   8 O8             0.8870     2.1123    -0.0920 O.2     
   9 N9            -1.3176     2.0991     0.1795 N.am    
  10 S10           -1.3750     3.7540     0.1954 S.o2    
  11 O11           -2.7501     4.0551     0.3891 O.2     
  12 O12           -0.4001     4.1292     1.1587 O.2     
  13 C13           -0.8451     4.2413    -1.4697 C.3     
  14 F14           -2.3431    -2.8464     0.2875 F       
  15 F15            2.2789     0.0487    -0.2782 F       
  16 O16            0.0593    -4.1349    -0.0213 O.3     
  17 C17           -0.1523    -4.7691    -1.2052 C.ar    
  18 C18           -0.0462    -6.1551    -1.2830 C.ar    
  19 C19           -0.2632    -6.7965    -2.4915 C.ar    
  20 C20           -0.5844    -6.0603    -3.6171 C.ar    
  21 C21           -0.6897    -4.6842    -3.5400 C.ar    
  22 C22           -0.4796    -4.0380    -2.3358 C.ar    
  23 O23            0.2701    -6.8776    -0.1753 O.3     
  24 C24            0.3616    -8.2953    -0.3296 C.3     
  25 C25            0.7239    -8.9322     1.0135 C.3     
  26 H26            2.1274    -2.5537    -0.2728 H       
  27 H27           -2.2063    -0.2463     0.2953 H       
  28 H28           -2.1342     1.5845     0.2754 H       
  29 H29           -1.5273     3.8176    -2.2066 H       
  30 H30           -0.8531     5.3283    -1.5499 H       
  31 H31            0.1635     3.8709    -1.6529 H       
  32 H32           -0.1812    -7.8715    -2.5547 H       
  33 H33           -0.7530    -6.5616    -4.5588 H       
  34 H34           -0.9404    -4.1128    -4.4216 H       
  35 H35           -0.5666    -2.9631    -2.2774 H       
  36 H36           -0.5971    -8.6863    -0.6704 H       
  37 H37            1.1320    -8.5319    -1.0635 H       
  38 H38            1.6826    -8.5412     1.3543 H       
  39 H39           -0.0466    -8.6956     1.7474 H       
  40 H40            0.7936   -10.0136     0.8958 H       
@<TRIPOS>BOND
   1    1    2 1
   2    1    8 2
   3    1    9 am
   4    2    3 ar
   5    2    7 ar
   6    3    4 ar
   7    3   15 1
   8    4    5 ar
   9    4   26 1
  10    5    6 ar
  11    5   16 1
  12    6    7 ar
  13    6   14 1
  14    7   27 1
  15    9   10 am
  16    9   28 1
  17   10   11 2
  18   10   12 2
  19   10   13 1
  20   13   29 1
  21   13   30 1
  22   13   31 1
  23   16   17 1
  24   17   18 ar
  25   17   22 ar
  26   18   19 ar
  27   18   23 1
  28   19   20 ar
  29   19   32 1
  30   20   21 ar
  31   20   33 1
  32   21   22 ar
  33   21   34 1
  34   22   35 1
  35   23   24 1
  36   24   25 1
  37   24   36 1
  38   24   37 1
  39   25   38 1
  40   25   39 1
  41   25   40 1

#	End of record

