#	Name: ASD01152155
#	Creating user name:	WinNT
#	Creation time:	15. 06. 2019 19:05

#	Modifying user name:	WinNT
#	Modification time:	15. 06. 2019 19:05

#	Program:	/corina/corina34_cracker 3.40 0067  02.08.2006

@<TRIPOS>MOLECULE
ASD01152155
  64   66    0    0    0
SMALL
NO_CHARGES


@<TRIPOS>ATOM
   1 N1            -0.0173     1.3539     0.0022 N.pl3   
   2 C2            -0.0034     0.0029     0.1537 C.2     
   3 N3            -1.2380    -0.4528     0.1173 N.2     
   4 C4            -2.0944     0.5578    -0.0558 C.2     
   5 C5            -1.3556     1.7323    -0.1283 C.2     
   6 N6            -3.4774     0.4537    -0.1418 N.am    
   7 N7             1.1244    -0.7676     0.3192 N.3     
   8 C8            -1.8542     3.0384    -0.3062 C.2     
   9 O9            -1.0026     4.0853    -0.3561 O.3     
  10 O10           -3.0530     3.2230    -0.4148 O.2     
  11 C11           -1.5772     5.3809    -0.5385 C.3     
  12 C12           -2.5323     5.6827     0.6181 C.3     
  13 C13           -0.4658     6.4320    -0.5696 C.3     
  14 C14           -2.3488     5.4153    -1.8592 C.3     
  15 C15            1.0962     2.2038    -0.0139 C.ar    
  16 C16            1.9987     2.1482    -1.0677 C.ar    
  17 C17            3.0953     2.9878    -1.0809 C.ar    
  18 C18            3.2949     3.8832    -0.0462 C.ar    
  19 C19            2.3981     3.9407     1.0048 C.ar    
  20 C20            1.2965     3.1077     1.0209 C.ar    
  21 C21           -4.0694    -0.7535    -0.0486 C.2     
  22 O22           -3.3934    -1.7515     0.1108 O.2     
  23 C23           -5.5367    -0.8639    -0.1399 C.ar    
  24 C24           -6.1565    -2.1178    -0.0434 C.ar    
  25 C25           -7.5371    -2.2104    -0.1301 C.ar    
  26 C26           -8.2977    -1.0707    -0.3109 C.ar    
  27 C27           -7.6878     0.1714    -0.4072 C.ar    
  28 C28           -6.3179     0.2814    -0.3173 C.ar    
  29 O29           -5.4086    -3.2356     0.1335 O.3     
  30 C30            1.1347    -1.4086     1.6409 C.3     
  31 C31            1.2412    -1.7667    -0.7514 C.3     
  32 O32           -1.0405     7.7276    -0.7520 O.3     
  33 C33           -0.0828     8.7873    -0.7955 C.3     
  34 Cl34         -10.0259    -1.1943    -0.4185 Cl      
  35 C35           -6.1094    -4.4777     0.2230 C.3     
  36 H36           -4.0168     1.2499    -0.2690 H       
  37 H37           -1.9825     5.6582     1.5590 H       
  38 H38           -2.9706     6.6709     0.4790 H       
  39 H39           -3.3240     4.9339     0.6403 H       
  40 H40            0.0839     6.4075     0.3713 H       
  41 H41            0.2145     6.2170    -1.3936 H       
  42 H42           -3.1406     4.6665    -1.8370 H       
  43 H43           -2.7872     6.4035    -1.9983 H       
  44 H44           -1.6685     5.2003    -2.6832 H       
  45 H45            1.8436     1.4488    -1.8759 H       
  46 H46            3.7978     2.9447    -1.9001 H       
  47 H47            4.1531     4.5387    -0.0588 H       
  48 H48            2.5570     4.6406     1.8118 H       
  49 H49            0.5963     3.1533     1.8419 H       
  50 H50           -8.0187    -3.1743    -0.0567 H       
  51 H51           -8.2901     1.0566    -0.5487 H       
  52 H52           -5.8472     1.2505    -0.3925 H       
  53 H53            0.2572    -2.0473     1.7419 H       
  54 H54            2.0368    -2.0115     1.7453 H       
  55 H55            1.1178    -0.6428     2.4163 H       
  56 H56            1.2131    -1.2667    -1.7196 H       
  57 H57            2.1843    -2.3029    -0.6466 H       
  58 H58            0.4127    -2.4717    -0.6824 H       
  59 H59            0.4749     8.8117     0.1407 H       
  60 H60            0.6055     8.6212    -1.6242 H       
  61 H61           -0.5983     9.7373    -0.9362 H       
  62 H62           -5.3949    -5.2888     0.3634 H       
  63 H63           -6.7957    -4.4475     1.0693 H       
  64 H64           -6.6723    -4.6443    -0.6954 H       
@<TRIPOS>BOND
   1    1    2 1
   2    1   15 1
   3    1    5 1
   4    2    3 2
   5    2    7 1
   6    3    4 1
   7    4    5 2
   8    4    6 1
   9    5    8 1
  10    6   21 am
  11    6   36 1
  12    7   30 1
  13    7   31 1
  14    8    9 1
  15    8   10 2
  16    9   11 1
  17   11   12 1
  18   11   13 1
  19   11   14 1
  20   12   37 1
  21   12   38 1
  22   12   39 1
  23   13   32 1
  24   13   40 1
  25   13   41 1
  26   14   42 1
  27   14   43 1
  28   14   44 1
  29   15   16 ar
  30   15   20 ar
  31   16   17 ar
  32   16   45 1
  33   17   18 ar
  34   17   46 1
  35   18   19 ar
  36   18   47 1
  37   19   20 ar
  38   19   48 1
  39   20   49 1
  40   21   22 2
  41   21   23 1
  42   23   24 ar
  43   23   28 ar
  44   24   25 ar
  45   24   29 1
  46   25   26 ar
  47   25   50 1
  48   26   27 ar
  49   26   34 1
  50   27   28 ar
  51   27   51 1
  52   28   52 1
  53   29   35 1
  54   30   53 1
  55   30   54 1
  56   30   55 1
  57   31   56 1
  58   31   57 1
  59   31   58 1
  60   32   33 1
  61   33   59 1
  62   33   60 1
  63   33   61 1
  64   35   62 1
  65   35   63 1
  66   35   64 1

#	End of record

