#	Name: ASD01884854
#	Creating user name:	WinNT
#	Creation time:	15. 06. 2019 19:49

#	Modifying user name:	WinNT
#	Modification time:	15. 06. 2019 19:49

#	Program:	/corina/corina34_cracker 3.40 0067  02.08.2006

@<TRIPOS>MOLECULE
ASD01884854
  43   47    0    0    0
SMALL
NO_CHARGES


@<TRIPOS>ATOM
   1 C1            -0.0164     1.3606     0.0095 C.ar    
   2 C2             0.0021    -0.0041     0.0020 C.ar    
   3 C3             1.2155    -0.7016    -0.0134 C.ar    
   4 C4             2.4183    -0.0064    -0.0207 C.ar    
   5 C5             2.4033     1.3877    -0.0131 C.ar    
   6 C6             1.1765     2.0775     0.0020 C.ar    
   7 C7             3.4481     2.4160    -0.0167 C.2     
   8 C8             2.8287     3.6061    -0.0044 C.2     
   9 N9             1.4697     3.4256     0.0070 N.pl3   
  10 C10            0.5241     4.4521     0.0214 C.ar    
  11 C11            1.2172    -2.1834    -0.0213 C.2     
  12 C12            0.7031    -2.8766    -1.1021 C.2     
  13 C13            1.7505    -2.9038     1.0750 C.2     
  14 C14            1.7516    -4.2498     1.0658 C.2     
  15 N15            1.2420    -4.9430     0.0054 N.pl3   
  16 C16            0.7194    -4.2827    -1.0801 C.2     
  17 Cl17           0.0473    -2.0240    -2.4647 Cl      
  18 C18            1.1145    -6.2702    -0.2705 C.2     
  19 N19            0.5473    -6.3761    -1.4445 N.2     
  20 N20            0.3099    -5.2095    -1.9326 N.2     
  21 C21            0.9457     5.7764     0.0256 C.ar    
  22 N22           -0.7659     4.1554     0.0254 N.ar    
  23 C23           -1.6918     5.0946     0.0385 C.ar    
  24 C24           -1.3445     6.4314     0.0485 C.ar    
  25 C25           -0.0023     6.7847     0.0394 C.ar    
  26 C26            1.5484    -7.4097     0.6152 C.3     
  27 C27            0.3968    -7.8012     1.5433 C.3     
  28 F28           -0.7046    -8.1988     0.7778 F       
  29 F29            0.7995    -8.8590     2.3655 F       
  30 F30            0.0424    -6.7038     2.3354 F       
  31 H31           -0.9600     1.8860     0.0168 H       
  32 H32           -0.9290    -0.5513     0.0084 H       
  33 H33            3.3566    -0.5411    -0.0319 H       
  34 H34            4.5148     2.2474    -0.0268 H       
  35 H35            3.3268     4.5643    -0.0031 H       
  36 H36            2.1582    -2.3712     1.9215 H       
  37 H37            2.1610    -4.7884     1.9076 H       
  38 H38            1.9989     6.0155     0.0184 H       
  39 H39           -2.7350     4.8147     0.0410 H       
  40 H40           -2.1094     7.1938     0.0588 H       
  41 H41            0.2956     7.8228     0.0473 H       
  42 H42            1.8245    -8.2647    -0.0019 H       
  43 H43            2.4065    -7.0999     1.2117 H       
@<TRIPOS>BOND
   1    1    2 ar
   2    1    6 ar
   3    1   31 1
   4    2    3 ar
   5    2   32 1
   6    3    4 ar
   7    3   11 1
   8    4    5 ar
   9    4   33 1
  10    5    6 ar
  11    5    7 1
  12    6    9 1
  13    7    8 2
  14    7   34 1
  15    8    9 1
  16    8   35 1
  17    9   10 1
  18   10   21 ar
  19   10   22 ar
  20   11   12 2
  21   11   13 1
  22   12   17 1
  23   12   16 1
  24   13   14 2
  25   13   36 1
  26   14   15 1
  27   14   37 1
  28   15   16 1
  29   15   18 1
  30   16   20 2
  31   18   19 2
  32   18   26 1
  33   19   20 1
  34   21   25 ar
  35   21   38 1
  36   22   23 ar
  37   23   24 ar
  38   23   39 1
  39   24   25 ar
  40   24   40 1
  41   25   41 1
  42   26   27 1
  43   26   42 1
  44   26   43 1
  45   27   28 1
  46   27   29 1
  47   27   30 1

#	End of record

