#	Name: ASD08151092
#	Creating user name:	WinNT
#	Creation time:	15. 06. 2019 21:17

#	Modifying user name:	WinNT
#	Modification time:	15. 06. 2019 21:17

#	Program:	/corina/corina34_cracker 3.40 0067  02.08.2006

@<TRIPOS>MOLECULE
ASD08151092
  43   44    0    0    0
SMALL
NO_CHARGES


@<TRIPOS>ATOM
   1 C1            -0.0184     1.5028     0.0103 C.2     
   2 C2             0.0323    -0.0029    -0.0274 C.3     
   3 C3             1.1819     3.6848    -0.0918 C.ar    
   4 C4             1.2266     2.2790     0.0069 C.ar    
   5 C5             2.4602     1.6253     0.1021 C.ar    
   6 C6             3.6317     2.3506     0.0997 C.ar    
   7 C7             3.5987     3.7463     0.0022 C.ar    
   8 C8             2.3710     4.4153    -0.0938 C.ar    
   9 C9            -0.1196     4.3820    -0.1989 C.ar    
  10 C10           -0.5429     5.2351     0.8205 C.ar    
  11 C11           -1.7586     5.8832     0.7141 C.ar    
  12 C12           -2.5558     5.6858    -0.4024 C.ar    
  13 C13           -2.1400     4.8405    -1.4148 C.ar    
  14 C14           -0.9249     4.1928    -1.3222 C.ar    
  15 C15            4.8212     4.4920     0.0010 C.1     
  16 C16            5.8235     5.1034    -0.0000 C.1     
  17 Si17           7.4456     6.0927    -0.0017 Si      
  18 C18            7.0639     7.9108    -0.1426 C.3     
  19 C19            8.3695     5.7732     1.5842 C.3     
  20 C20            8.4938     5.5643    -1.4483 C.3     
  21 F21            4.8182     1.7112     0.1924 F       
  22 F22           -2.1709     6.7100     1.6998 F       
  23 N23            2.3377     5.8038    -0.1903 N.pl3   
  24 O24           -1.0887     2.0731     0.0384 O.2     
  25 H25            1.0655    -0.3288    -0.1478 H       
  26 H26           -0.3689    -0.4034     0.9035 H       
  27 H27           -0.5630    -0.3656    -0.8654 H       
  28 H28            2.4941     0.5485     0.1780 H       
  29 H29            0.0780     5.3884     1.6908 H       
  30 H30           -3.5055     6.1938    -0.4818 H       
  31 H31           -2.7656     4.6904    -2.2822 H       
  32 H32           -0.6000     3.5366    -2.1160 H       
  33 H33            6.4506     8.2199     0.7038 H       
  34 H34            7.9945     8.4784    -0.1435 H       
  35 H35            6.5234     8.0977    -1.0705 H       
  36 H36            8.5928     4.7095     1.6667 H       
  37 H37            9.3000     6.3408     1.5833 H       
  38 H38            7.7562     6.0824     2.4306 H       
  39 H39            7.9533     5.7512    -2.3762 H       
  40 H40            9.4244     6.1319    -1.4492 H       
  41 H41            8.7171     4.5006    -1.3659 H       
  42 H42            1.4870     6.2652    -0.2564 H       
  43 H43            3.1652     6.3099    -0.1916 H       
@<TRIPOS>BOND
   1    1    2 1
   2    1    4 1
   3    1   24 2
   4    2   25 1
   5    2   26 1
   6    2   27 1
   7    3    4 ar
   8    3    8 ar
   9    3    9 1
  10    4    5 ar
  11    5    6 ar
  12    5   28 1
  13    6    7 ar
  14    6   21 1
  15    7    8 ar
  16    7   15 1
  17    8   23 1
  18    9   10 ar
  19    9   14 ar
  20   10   11 ar
  21   10   29 1
  22   11   12 ar
  23   11   22 1
  24   12   13 ar
  25   12   30 1
  26   13   14 ar
  27   13   31 1
  28   14   32 1
  29   15   16 3
  30   16   17 1
  31   17   18 1
  32   17   19 1
  33   17   20 1
  34   18   33 1
  35   18   34 1
  36   18   35 1
  37   19   36 1
  38   19   37 1
  39   19   38 1
  40   20   39 1
  41   20   40 1
  42   20   41 1
  43   23   42 1
  44   23   43 1

#	End of record

