#	Name: ASD01840527
#	Creating user name:	WinNT
#	Creation time:	15. 06. 2019 19:37

#	Modifying user name:	WinNT
#	Modification time:	15. 06. 2019 19:37

#	Program:	/corina/corina34_cracker 3.40 0067  02.08.2006

@<TRIPOS>MOLECULE
ASD01840527
  48   51    0    0    0
SMALL
NO_CHARGES


@<TRIPOS>ATOM
   1 C1             2.2320     0.3750     0.6587 C.3     
   2 C2             1.0931    -0.5506     0.3163 C.ar    
   3 C3             1.0497    -1.1627    -0.9063 C.ar    
   4 C4            -0.0272    -2.0146    -1.1799 C.ar    
   5 C5            -0.1588    -2.7139    -2.4600 C.2     
   6 O6             0.6778    -2.5710    -3.3340 O.2     
   7 N7            -1.2238    -3.5200    -2.6531 N.am    
   8 N8            -2.1943    -3.6995    -1.6669 N.2     
   9 C9            -2.1379    -3.1097    -0.5105 C.2     
  10 C10           -1.0234    -2.2134    -0.1976 C.ar    
  11 N11           -0.9349    -1.5943     0.9752 N.ar    
  12 C12            0.0794    -0.7916     1.2494 C.ar    
  13 N13            0.1361    -0.1708     2.4859 N.3     
  14 C14           -0.9536     0.8019     2.6369 C.3     
  15 C15           -0.7757     1.5697     3.9487 C.3     
  16 C16           -0.7832     0.5812     5.1180 C.3     
  17 C17            0.3301    -0.4497     4.9118 C.3     
  18 C18            0.1201    -1.1589     3.5721 C.3     
  19 O19           -0.5606     1.2863     6.3409 O.3     
  20 C20           -1.1819     0.6862     7.4792 C.3     
  21 C21           -0.8785     1.5208     8.7251 C.3     
  22 C22            0.4992     2.1856     8.7545 C.3     
  23 C23           -2.0421     2.2768     9.3696 C.3     
  24 C24           -1.4594     1.0399    10.0563 C.3     
  25 H25            2.9969    -0.1769     1.2050 H       
  26 H26            2.6606     0.7786    -0.2586 H       
  27 H27            1.8622     1.1926     1.2775 H       
  28 H28            1.8240    -0.9934    -1.6399 H       
  29 H29           -1.3171    -3.9858    -3.4988 H       
  30 H30           -2.9143    -3.2806     0.2205 H       
  31 H31           -0.9344     1.5014     1.8012 H       
  32 H32           -1.9092     0.2777     2.6496 H       
  33 H33            0.1735     2.1053     3.9310 H       
  34 H34           -1.5932     2.2807     4.0680 H       
  35 H35           -1.7468     0.0733     5.1595 H       
  36 H36            1.2966     0.0541     4.9093 H       
  37 H37            0.3026    -1.1815     5.7192 H       
  38 H38           -0.8405    -1.6740     3.5804 H       
  39 H39            0.9192    -1.8836     3.4156 H       
  40 H40           -2.2600     0.6433     7.3243 H       
  41 H41           -0.7940    -0.3234     7.6149 H       
  42 H42            0.7839     2.4766     7.7434 H       
  43 H43            0.4623     3.0702     9.3903 H       
  44 H44            1.2330     1.4837     9.1508 H       
  45 H45           -1.8263     3.2481     9.8146 H       
  46 H46           -3.0238     2.1795     8.9060 H       
  47 H47           -2.0578     0.1290    10.0445 H       
  48 H48           -0.8603     1.1975    10.9531 H       
@<TRIPOS>BOND
   1    1    2 1
   2    1   25 1
   3    1   26 1
   4    1   27 1
   5    2   12 ar
   6    2    3 ar
   7    3    4 ar
   8    3   28 1
   9    4   10 ar
  10    4    5 1
  11    5    6 2
  12    5    7 am
  13    7    8 1
  14    7   29 1
  15    8    9 2
  16    9   10 1
  17    9   30 1
  18   10   11 ar
  19   11   12 ar
  20   12   13 1
  21   13   18 1
  22   13   14 1
  23   14   15 1
  24   14   31 1
  25   14   32 1
  26   15   16 1
  27   15   33 1
  28   15   34 1
  29   16   17 1
  30   16   19 1
  31   16   35 1
  32   17   18 1
  33   17   36 1
  34   17   37 1
  35   18   38 1
  36   18   39 1
  37   19   20 1
  38   20   21 1
  39   20   40 1
  40   20   41 1
  41   21   24 1
  42   21   22 1
  43   21   23 1
  44   22   42 1
  45   22   43 1
  46   22   44 1
  47   23   24 1
  48   23   45 1
  49   23   46 1
  50   24   47 1
  51   24   48 1

#	End of record

