#	Name: ASD03950046
#	Creating user name:	WinNT
#	Creation time:	15. 06. 2019 20:48

#	Modifying user name:	WinNT
#	Modification time:	15. 06. 2019 20:48

#	Program:	/corina/corina34_cracker 3.40 0067  02.08.2006

@<TRIPOS>MOLECULE
ASD03950046
  72   76    0    0    0
SMALL
NO_CHARGES


@<TRIPOS>ATOM
   1 N1            -0.0169     1.3942     0.0097 N.pl3   
   2 N2             0.0021    -0.0041     0.0020 N.2     
   3 C3             1.2311    -0.4341    -0.0120 C.2     
   4 C4             2.1093     0.7334    -0.0141 C.ar    
   5 C5             3.4967     0.8990    -0.0264 C.ar    
   6 C6             4.0411     2.1756    -0.0248 C.ar    
   7 C7             3.2112     3.2979    -0.0104 C.ar    
   8 C8             1.8299     3.1501     0.0024 C.ar    
   9 C9             1.2663     1.8606    -0.0000 C.ar    
  10 C10            0.9576     4.3398     0.0186 C.2     
  11 O11           -0.2510     4.2074     0.0298 O.2     
  12 N12            1.5005     5.5734     0.0209 N.am    
  13 N13            1.2106    -4.6672    -0.0358 N.am    
  14 C14            1.6134    -4.0366     1.2286 C.3     
  15 C15            1.1378    -2.5804     1.2268 C.3     
  16 C16            1.6687    -1.8761    -0.0239 C.3     
  17 C17            1.1164    -2.5662    -1.2733 C.3     
  18 C18            1.5918    -4.0222    -1.2998 C.3     
  19 S19            0.3495    -6.0817    -0.0365 S.o2    
  20 O20            0.6710    -6.6871    -1.2812 O.2     
  21 O21            0.6973    -6.7043     1.1926 O.2     
  22 C22           -1.3862    -5.5549    -0.0144 C.3     
  23 C23           -2.2932    -6.7870    -0.0133 C.3     
  24 C24           -3.7572    -6.3427     0.0054 C.3     
  25 N25           -4.6280    -7.5258     0.0065 N.3     
  26 C26           -6.0246    -7.1509     0.2620 C.3     
  27 C27           -6.8762    -8.4149     0.4004 C.3     
  28 C28           -6.7761    -9.2356    -0.8883 C.3     
  29 C29           -5.3067    -9.5716    -1.1573 C.3     
  30 C30           -4.5005    -8.2741    -1.2505 C.3     
  31 O31           -7.5238   -10.4448    -0.7438 O.3     
  32 C32            5.5152     2.3486    -0.0379 C.ar    
  33 C33            6.0688     3.6270    -0.0363 C.ar    
  34 C34            7.4423     3.7820    -0.0486 C.ar    
  35 C35            8.2665     2.6684    -0.0630 C.ar    
  36 C36            7.7202     1.3983    -0.0646 C.ar    
  37 C37            6.3497     1.2331    -0.0461 C.ar    
  38 F38            7.9815     5.0207    -0.0472 F       
  39 H39           -0.8151     1.9454     0.0166 H       
  40 H40            4.1444     0.0349    -0.0369 H       
  41 H41            3.6454     4.2867    -0.0089 H       
  42 H42            2.4646     5.6790     0.0120 H       
  43 H43            0.9269     6.3556     0.0315 H       
  44 H44            1.1578    -4.5687     2.0637 H       
  45 H45            2.6989    -4.0663     1.3223 H       
  46 H46            0.0481    -2.5535     1.2245 H       
  47 H47            1.5127    -2.0740     2.1162 H       
  48 H48            2.7576    -1.9251    -0.0336 H       
  49 H49            0.0269    -2.5395    -1.2520 H       
  50 H50            1.4761    -2.0498    -2.1632 H       
  51 H51            2.6756    -4.0508    -1.4123 H       
  52 H52            1.1219    -4.5449    -2.1329 H       
  53 H53           -1.5751    -4.9638     0.8818 H       
  54 H54           -1.5941    -4.9515    -0.8980 H       
  55 H55           -2.1043    -7.3780    -0.9094 H       
  56 H56           -2.0854    -7.3904     0.8704 H       
  57 H57           -3.9461    -5.7517     0.9016 H       
  58 H58           -3.9650    -5.7393    -0.8782 H       
  59 H59           -6.0824    -6.5714     1.1834 H       
  60 H60           -6.3974    -6.5510    -0.5682 H       
  61 H61           -6.5127    -9.0086     1.2391 H       
  62 H62           -7.9155    -8.1362     0.5746 H       
  63 H63           -7.1756    -8.6565    -1.7209 H       
  64 H64           -4.9184   -10.1836    -0.3431 H       
  65 H65           -5.2245   -10.1194    -2.0961 H       
  66 H66           -4.8804    -7.6689    -2.0737 H       
  67 H67           -3.4513    -8.5104    -1.4278 H       
  68 H68           -7.5044   -11.0149    -1.5246 H       
  69 H69            5.4262     4.4950    -0.0259 H       
  70 H70            9.3393     2.7928    -0.0733 H       
  71 H71            8.3670     0.5335    -0.0757 H       
  72 H72            5.9249     0.2402    -0.0424 H       
@<TRIPOS>BOND
   1    1    2 1
   2    1    9 1
   3    1   39 1
   4    2    3 2
   5    3    4 1
   6    3   16 1
   7    4    5 ar
   8    4    9 ar
   9    5    6 ar
  10    5   40 1
  11    6    7 ar
  12    6   32 1
  13    7    8 ar
  14    7   41 1
  15    8    9 ar
  16    8   10 1
  17   10   11 2
  18   10   12 am
  19   12   42 1
  20   12   43 1
  21   13   14 1
  22   13   18 1
  23   13   19 am
  24   14   15 1
  25   14   44 1
  26   14   45 1
  27   15   16 1
  28   15   46 1
  29   15   47 1
  30   16   17 1
  31   16   48 1
  32   17   18 1
  33   17   49 1
  34   17   50 1
  35   18   51 1
  36   18   52 1
  37   19   20 2
  38   19   21 2
  39   19   22 1
  40   22   23 1
  41   22   53 1
  42   22   54 1
  43   23   24 1
  44   23   55 1
  45   23   56 1
  46   24   25 1
  47   24   57 1
  48   24   58 1
  49   25   26 1
  50   25   30 1
  51   26   27 1
  52   26   59 1
  53   26   60 1
  54   27   28 1
  55   27   61 1
  56   27   62 1
  57   28   29 1
  58   28   31 1
  59   28   63 1
  60   29   30 1
  61   29   64 1
  62   29   65 1
  63   30   66 1
  64   30   67 1
  65   31   68 1
  66   32   33 ar
  67   32   37 ar
  68   33   34 ar
  69   33   69 1
  70   34   35 ar
  71   34   38 1
  72   35   36 ar
  73   35   70 1
  74   36   37 ar
  75   36   71 1
  76   37   72 1

#	End of record

