#	Name: ASD02030405
#	Creating user name:	WinNT
#	Creation time:	15. 06. 2019 20:15

#	Modifying user name:	WinNT
#	Modification time:	15. 06. 2019 20:15

#	Program:	/corina/corina34_cracker 3.40 0067  02.08.2006

@<TRIPOS>MOLECULE
ASD02030405
  25   26    0    0    0
SMALL
NO_CHARGES


@<TRIPOS>ATOM
   1 C1            -0.0158     1.3135     0.0093 C.ar    
   2 N2             0.0021    -0.0041     0.0020 N.ar    
   3 C3             1.1294    -0.7055    -0.0125 C.ar    
   4 C4             2.3512    -0.1043    -0.0209 C.ar    
   5 C5             2.4153     1.3029    -0.0140 C.ar    
   6 C6             3.6346     1.9923    -0.0223 C.ar    
   7 C7             3.6312     3.3700    -0.0154 C.ar    
   8 C8             2.4272     4.0811     0.0003 C.ar    
   9 C9             1.2306     3.4330     0.0087 C.ar    
  10 C10            1.1982     2.0312     0.0015 C.ar    
  11 O11            4.8100     4.0448    -0.0234 O.3     
  12 C12            4.7406     5.4721    -0.0156 C.3     
  13 O13           -1.1971     1.9770     0.0185 O.3     
  14 C14           -2.3863     1.1844     0.0198 C.3     
  15 Cl15           1.0432    -2.4394    -0.0204 Cl      
  16 H16            3.2548    -0.6956    -0.0324 H       
  17 H17            4.5681     1.4493    -0.0337 H       
  18 H18            2.4473     5.1609     0.0063 H       
  19 H19            0.3092     3.9964     0.0212 H       
  20 H20            4.2011     5.8145    -0.8987 H       
  21 H21            4.2183     5.8055     0.8812 H       
  22 H22            5.7493     5.8850    -0.0233 H       
  23 H23           -2.4078     0.5602    -0.8735 H       
  24 H24           -2.3994     0.5505     0.9064 H       
  25 H25           -3.2585     1.8381     0.0274 H       
@<TRIPOS>BOND
   1    1    2 ar
   2    1   10 ar
   3    1   13 1
   4    2    3 ar
   5    3    4 ar
   6    3   15 1
   7    4    5 ar
   8    4   16 1
   9    5    6 ar
  10    5   10 ar
  11    6    7 ar
  12    6   17 1
  13    7    8 ar
  14    7   11 1
  15    8    9 ar
  16    8   18 1
  17    9   10 ar
  18    9   19 1
  19   11   12 1
  20   12   20 1
  21   12   21 1
  22   12   22 1
  23   13   14 1
  24   14   23 1
  25   14   24 1
  26   14   25 1

#	End of record

