#	Name: ASD01900539
#	Creating user name:	WinNT
#	Creation time:	15. 06. 2019 19:52

#	Modifying user name:	WinNT
#	Modification time:	15. 06. 2019 19:52

#	Program:	/corina/corina34_cracker 3.40 0067  02.08.2006

@<TRIPOS>MOLECULE
ASD01900539
  34   37    0    0    0
SMALL
NO_CHARGES


@<TRIPOS>ATOM
   1 C1             0.3965     3.6288     0.7140 C.ar    
   2 C2             0.8595     4.5481     1.6669 C.ar    
   3 C3             2.2317     4.7157     1.8331 C.ar    
   4 C4             3.0837     3.9634     1.0459 C.ar    
   5 C5             2.5547     3.0726     0.1229 C.ar    
   6 N6             1.2557     2.9291    -0.0184 N.ar    
   7 O7            -0.2204     5.1035     2.2508 O.3     
   8 N8            -1.3945     4.5545     1.6870 N.2     
   9 C9            -1.0744     3.6836     0.7711 C.2     
  10 N10           -1.9564     2.9392    -0.0010 N.pl3   
  11 C11           -3.3358     3.1417     0.1209 C.ar    
  12 C12           -3.8297     4.4087     0.4043 C.ar    
  13 C13           -5.1915     4.6077     0.5240 C.ar    
  14 C14           -6.0659     3.5413     0.3611 C.ar    
  15 C15           -5.5727     2.2764     0.0786 C.ar    
  16 C16           -4.2116     2.0773    -0.0470 C.ar    
  17 O17           -7.4065     3.7374     0.4790 O.3     
  18 C18           -8.0825     4.1863    -0.6081 C.ar    
  19 C19           -9.4428     4.4645    -0.5175 C.ar    
  20 N20           -7.4476     4.3661    -1.7575 N.ar    
  21 N21          -10.0972     4.9015    -1.5769 N.ar    
  22 C22           -9.4614     5.0749    -2.7235 C.ar    
  23 C23           -8.1093     4.8042    -2.8153 C.ar    
  24 Cl24          -5.8096     6.1907     0.8787 Cl      
  25 H25            2.6205     5.4157     2.5579 H       
  26 H26            4.1536     4.0686     1.1484 H       
  27 H27            3.2226     2.4862    -0.4907 H       
  28 H28           -1.6164     2.2788    -0.6249 H       
  29 H29           -3.1493     5.2378     0.5313 H       
  30 H30           -6.2534     1.4473    -0.0472 H       
  31 H31           -3.8283     1.0928    -0.2713 H       
  32 H32           -9.9625     4.3227     0.4186 H       
  33 H33           -9.9993     5.4323    -3.5891 H       
  34 H34           -7.5922     4.9511    -3.7520 H       
@<TRIPOS>BOND
   1    1    2 ar
   2    1    6 ar
   3    1    9 1
   4    2    3 ar
   5    2    7 1
   6    3    4 ar
   7    3   25 1
   8    4    5 ar
   9    4   26 1
  10    5    6 ar
  11    5   27 1
  12    7    8 1
  13    8    9 2
  14    9   10 1
  15   10   11 1
  16   10   28 1
  17   11   12 ar
  18   11   16 ar
  19   12   13 ar
  20   12   29 1
  21   13   14 ar
  22   13   24 1
  23   14   15 ar
  24   14   17 1
  25   15   16 ar
  26   15   30 1
  27   16   31 1
  28   17   18 1
  29   18   19 ar
  30   18   20 ar
  31   19   21 ar
  32   19   32 1
  33   20   23 ar
  34   21   22 ar
  35   22   23 ar
  36   22   33 1
  37   23   34 1

#	End of record

