#	Name: ASD03240406
#	Creating user name:	WinNT
#	Creation time:	15. 06. 2019 20:34

#	Modifying user name:	WinNT
#	Modification time:	15. 06. 2019 20:34

#	Program:	/corina/corina34_cracker 3.40 0067  02.08.2006

@<TRIPOS>MOLECULE
ASD03240406
  26   27    0    0    0
SMALL
NO_CHARGES


@<TRIPOS>ATOM
   1 C1            -0.0167     1.3782     0.0096 C.ar    
   2 C2             0.0021    -0.0041     0.0020 C.ar    
   3 C3             2.3911     1.8806    -2.2244 C.ar    
   4 C4             1.5703     2.6256    -1.3981 C.ar    
   5 C5             1.2782     2.1491     0.0014 C.3     
   6 C6             2.6594     2.3175    -3.5088 C.ar    
   7 C7             2.1055     3.5014    -3.9666 C.ar    
   8 C8             1.2846     4.2453    -3.1387 C.ar    
   9 C9             1.0178     3.8074    -1.8548 C.ar    
  10 O10            1.1679     3.2749     0.8746 O.3     
  11 Cl11           2.4417     4.0515    -5.5784 Cl      
  12 C12           -1.1852    -0.7116     0.0096 C.ar    
  13 C13           -2.3926    -0.0363     0.0247 C.ar    
  14 C14           -2.4107     1.3471     0.0323 C.ar    
  15 C15           -1.2228     2.0536     0.0190 C.ar    
  16 Cl16          -3.8842    -0.9243     0.0336 Cl      
  17 Cl17           3.6905     1.3827    -4.5465 Cl      
  18 H18            0.9446    -0.5312    -0.0102 H       
  19 H19            2.8263     0.9597    -1.8652 H       
  20 H20            2.0877     1.5033     0.3417 H       
  21 H21            0.8525     5.1688    -3.4949 H       
  22 H22            0.3770     4.3888    -1.2085 H       
  23 H23            0.4658     3.8938     0.6315 H       
  24 H24           -1.1704    -1.7915     0.0033 H       
  25 H25           -3.3529     1.8749     0.0441 H       
  26 H26           -1.2368     3.1335     0.0249 H       
@<TRIPOS>BOND
   1    1    2 ar
   2    1    5 1
   3    1   15 ar
   4    2   12 ar
   5    2   18 1
   6    3    4 ar
   7    3    6 ar
   8    3   19 1
   9    4    5 1
  10    4    9 ar
  11    5   10 1
  12    5   20 1
  13    6    7 ar
  14    6   17 1
  15    7    8 ar
  16    7   11 1
  17    8    9 ar
  18    8   21 1
  19    9   22 1
  20   10   23 1
  21   12   13 ar
  22   12   24 1
  23   13   14 ar
  24   13   16 1
  25   14   15 ar
  26   14   25 1
  27   15   26 1

#	End of record

