#	Name: ASD03091279
#	Creating user name:	WinNT
#	Creation time:	15. 06. 2019 20:30

#	Modifying user name:	WinNT
#	Modification time:	15. 06. 2019 20:30

#	Program:	/corina/corina34_cracker 3.40 0067  02.08.2006

@<TRIPOS>MOLECULE
ASD03091279
  58   63    0    0    0
SMALL
NO_CHARGES


@<TRIPOS>ATOM
   1 N1            -0.0160     1.3900     0.3308 N.2     
   2 C2             0.0166     0.0838     0.2685 C.2     
   3 N3             1.1533    -0.6220    -0.0213 N.am    
   4 C4             2.3180     0.0243    -0.2613 C.2     
   5 C5             2.3046     1.4933    -0.1971 C.ar    
   6 C6             3.4520     2.2484    -0.4292 C.ar    
   7 C7             3.3822     3.6294    -0.3562 C.ar    
   8 C8             2.1756     4.2604    -0.0529 C.ar    
   9 C9             1.0430     3.5338     0.1769 C.ar    
  10 C10            1.0843     2.1376     0.1098 C.ar    
  11 O11            3.3381    -0.5874    -0.5201 O.2     
  12 C12           -1.2311    -0.6646     0.5233 C.ar    
  13 C13           -1.7369    -1.5379    -0.4449 C.ar    
  14 C14           -2.9052    -2.2344    -0.1983 C.ar    
  15 C15           -3.5721    -2.0680     1.0017 C.ar    
  16 C16           -3.0761    -1.2052     1.9632 C.ar    
  17 C17           -1.9081    -0.5081     1.7341 C.ar    
  18 F18           -1.0861    -1.6999    -1.6176 F       
  19 C19            1.1088    -2.0854    -0.0715 C.3     
  20 C20            1.6566    -2.6738    -1.3825 C.3     
  21 C21            2.3103    -3.7705    -0.5254 C.3     
  22 C22            2.2946    -2.7624     0.6359 C.3     
  23 N23            6.9917     5.2546    -1.9881 N.3     
  24 C24            6.9978     4.3353    -0.8400 C.3     
  25 C25            5.7035     3.5389    -0.7825 C.3     
  26 N26            4.5279     4.3958    -0.5873 N.3     
  27 C27            4.3406     5.2886    -1.7395 C.3     
  28 C28            5.0059     6.6326    -1.4833 C.3     
  29 C29            6.5181     6.5810    -1.5673 C.3     
  30 C30            6.3374     4.7771    -3.1874 C.3     
  31 C31            4.8410     4.5949    -2.9933 C.3     
  32 H32            4.3871     1.7614    -0.6633 H       
  33 H33            2.1370     5.3383     0.0011 H       
  34 H34            0.1163     4.0366     0.4109 H       
  35 H35           -3.2981    -2.9094    -0.9442 H       
  36 H36           -4.4849    -2.6139     1.1892 H       
  37 H37           -3.6029    -1.0804     2.8977 H       
  38 H38           -1.5207     0.1612     2.4880 H       
  39 H39            0.1383    -2.4896     0.2165 H       
  40 H40            0.8809    -3.0467    -2.0514 H       
  41 H41            2.3749    -2.0262    -1.8852 H       
  42 H42            1.6690    -4.6363    -0.3606 H       
  43 H43            3.3134    -4.0419    -0.8544 H       
  44 H44            3.1874    -2.1390     0.6850 H       
  45 H45            2.0341    -3.2069     1.5964 H       
  46 H46            7.8384     3.6479    -0.9348 H       
  47 H47            7.1068     4.9101     0.0797 H       
  48 H48            5.5870     2.9868    -1.7151 H       
  49 H49            5.7628     2.8279     0.0415 H       
  50 H50            3.2712     5.4586    -1.8640 H       
  51 H51            4.6394     7.3497    -2.2179 H       
  52 H52            4.7227     6.9789    -0.4893 H       
  53 H53            6.9370     6.8145    -0.5885 H       
  54 H54            6.8602     7.3256    -2.2862 H       
  55 H55            6.5049     5.4943    -3.9909 H       
  56 H56            6.7759     3.8208    -3.4724 H       
  57 H57            4.6202     3.5299    -2.9210 H       
  58 H58            4.3190     5.0054    -3.8576 H       
@<TRIPOS>BOND
   1    1    2 2
   2    1   10 1
   3    2    3 1
   4    2   12 1
   5    3    4 am
   6    3   19 1
   7    4    5 1
   8    4   11 2
   9    5    6 ar
  10    5   10 ar
  11    6    7 ar
  12    6   32 1
  13    7    8 ar
  14    7   26 1
  15    8    9 ar
  16    8   33 1
  17    9   10 ar
  18    9   34 1
  19   12   13 ar
  20   12   17 ar
  21   13   14 ar
  22   13   18 1
  23   14   15 ar
  24   14   35 1
  25   15   16 ar
  26   15   36 1
  27   16   17 ar
  28   16   37 1
  29   17   38 1
  30   19   20 1
  31   19   22 1
  32   19   39 1
  33   20   21 1
  34   20   40 1
  35   20   41 1
  36   21   22 1
  37   21   42 1
  38   21   43 1
  39   22   44 1
  40   22   45 1
  41   23   24 1
  42   23   29 1
  43   23   30 1
  44   24   25 1
  45   24   46 1
  46   24   47 1
  47   25   26 1
  48   25   48 1
  49   25   49 1
  50   26   27 1
  51   27   28 1
  52   27   31 1
  53   27   50 1
  54   28   29 1
  55   28   51 1
  56   28   52 1
  57   29   53 1
  58   29   54 1
  59   30   31 1
  60   30   55 1
  61   30   56 1
  62   31   57 1
  63   31   58 1

#	End of record

