#	Name: ASD02860007
#	Creating user name:	WinNT
#	Creation time:	15. 06. 2019 20:26

#	Modifying user name:	WinNT
#	Modification time:	15. 06. 2019 20:26

#	Program:	/corina/corina34_cracker 3.40 0067  02.08.2006

@<TRIPOS>MOLECULE
ASD02860007
  90   91    0    0    0
SMALL
NO_CHARGES


@<TRIPOS>ATOM
   1 N1             2.3476     1.7406     0.1534 N.3     
   2 C2             2.8349     0.3556     0.1038 C.3     
   3 C3             4.0255     0.2090     1.0158 C.2     
   4 N4             4.3945    -1.0119     1.4515 N.am    
   5 O5             4.6518     1.1897     1.3578 O.2     
   6 C6             3.2446     0.0101    -1.3293 C.3     
   7 C7             2.0104     0.0376    -2.2332 C.3     
   8 C8             2.4201    -0.3079    -3.6663 C.3     
   9 N9             1.2385    -0.2815    -4.5318 N.pl3   
  10 C10            1.3617    -0.5619    -5.8721 C.2     
  11 N11            0.2527    -0.5372    -6.6844 N.am    
  12 N12            2.5299    -0.8512    -6.3727 N.2     
  13 C13            5.5520    -1.1544     2.3381 C.3     
  14 C14            5.7528    -2.6318     2.6811 C.3     
  15 C15            6.9617    -2.7807     3.6071 C.3     
  16 N16            7.1546    -4.1992     3.9364 N.3     
  17 C17            8.3093    -4.3808     4.8261 C.3     
  18 C18            8.4778    -5.8675     5.1460 C.3     
  19 C19            9.6805    -6.0567     6.0726 C.3     
  20 N20            9.8418    -7.4802     6.3789 N.am    
  21 S21            0.3800    -0.9864    -8.2732 S.o2    
  22 O22            0.9152    -2.3027    -8.2765 O.2     
  23 O23           -0.8569    -0.6489    -8.8859 O.2     
  24 C24            1.5998     0.0486    -9.0118 C.ar    
  25 C25            1.3786     1.4089    -9.1203 C.ar    
  26 C26            2.3341     2.2184    -9.7005 C.ar    
  27 C27            3.5203     1.6701   -10.1772 C.ar    
  28 C28            3.7406     0.3084   -10.0634 C.ar    
  29 C29            2.7799    -0.4983    -9.4774 C.ar    
  30 O30            4.4322     2.4971   -10.7515 O.3     
  31 C31            5.7699     2.0182   -10.8960 C.3     
  32 C32            5.7190     0.6233   -11.5320 C.3     
  33 C33            5.0171    -0.3247   -10.5564 C.3     
  34 C34            3.0179    -1.9816    -9.3571 C.3     
  35 C35            0.0948     2.0074    -8.6059 C.3     
  36 C36            2.0913     3.7011    -9.8183 C.3     
  37 C37            6.5622     2.9670   -11.7977 C.3     
  38 C38            6.4382     1.9340    -9.5222 C.3     
  39 C39           10.8438    -7.8871     7.1833 C.2     
  40 C40           11.0097    -9.3514     7.4984 C.3     
  41 O41           11.6118    -7.0747     7.6535 O.2     
  42 H42            3.0637     2.3866    -0.1431 H       
  43 H43            1.5108     1.8495    -0.3998 H       
  44 H44            2.0433    -0.3199     0.4283 H       
  45 H45            3.8936    -1.7962     1.1779 H       
  46 H46            3.9719     0.7397    -1.6852 H       
  47 H47            3.6883    -0.9853    -1.3504 H       
  48 H48            1.2831    -0.6920    -1.8773 H       
  49 H49            1.5668     1.0330    -2.2121 H       
  50 H50            3.1475     0.4217    -4.0222 H       
  51 H51            2.8638    -1.3033    -3.6874 H       
  52 H52            0.3691    -0.0663    -4.1593 H       
  53 H53           -0.6042    -0.2567    -6.3268 H       
  54 H54            2.6328    -0.9628    -7.3308 H       
  55 H55            6.4421    -0.7733     1.8376 H       
  56 H56            5.3799    -0.5889     3.2539 H       
  57 H57            4.8627    -3.0129     3.1816 H       
  58 H58            5.9249    -3.1973     1.7653 H       
  59 H59            7.8518    -2.3996     3.1066 H       
  60 H60            6.7896    -2.2152     4.5229 H       
  61 H61            6.3193    -4.5928     4.3432 H       
  62 H62            9.2088    -4.0109     4.3340 H       
  63 H63            8.1466    -3.8265     5.7503 H       
  64 H64            7.5783    -6.2375     5.6380 H       
  65 H65            8.6405    -6.4219     4.2217 H       
  66 H66           10.5800    -5.6867     5.5805 H       
  67 H67            9.5178    -5.5023     6.9969 H       
  68 H68            9.2275    -8.1299     6.0028 H       
  69 H69            5.1616     0.6663   -12.4677 H       
  70 H70            6.7321     0.2695   -11.7232 H       
  71 H71            5.6734    -0.5249    -9.7095 H       
  72 H72            4.7850    -1.2610   -11.0640 H       
  73 H73            3.2406    -2.2308    -8.3196 H       
  74 H74            2.1256    -2.5198    -9.6766 H       
  75 H75            3.8597    -2.2668    -9.9880 H       
  76 H76            0.2209     2.2959    -7.5624 H       
  77 H77           -0.1589     2.8868    -9.1979 H       
  78 H78           -0.7062     1.2724    -8.6854 H       
  79 H79            2.4686     4.2030    -8.9273 H       
  80 H80            2.6079     4.0851   -10.6979 H       
  81 H81            1.0217     3.8875    -9.9148 H       
  82 H82            6.5804     3.9615   -11.3518 H       
  83 H83            7.5823     2.5985   -11.9056 H       
  84 H84            6.0883     3.0169   -12.7780 H       
  85 H85            5.8762     1.2502    -8.8861 H       
  86 H86            7.4586     1.5683    -9.6363 H       
  87 H87            6.4558     2.9235    -9.0654 H       
  88 H88           10.2329    -9.9227     6.9902 H       
  89 H89           11.9892    -9.6875     7.1583 H       
  90 H90           10.9270    -9.5031     8.5746 H       
@<TRIPOS>BOND
   1    1    2 1
   2    1   42 1
   3    1   43 1
   4    2    3 1
   5    2    6 1
   6    2   44 1
   7    3    4 am
   8    3    5 2
   9    4   13 1
  10    4   45 1
  11    6    7 1
  12    6   46 1
  13    6   47 1
  14    7    8 1
  15    7   48 1
  16    7   49 1
  17    8    9 1
  18    8   50 1
  19    8   51 1
  20    9   10 1
  21    9   52 1
  22   10   11 1
  23   10   12 2
  24   11   21 am
  25   11   53 1
  26   12   54 1
  27   13   14 1
  28   13   55 1
  29   13   56 1
  30   14   15 1
  31   14   57 1
  32   14   58 1
  33   15   16 1
  34   15   59 1
  35   15   60 1
  36   16   17 1
  37   16   61 1
  38   17   18 1
  39   17   62 1
  40   17   63 1
  41   18   19 1
  42   18   64 1
  43   18   65 1
  44   19   20 1
  45   19   66 1
  46   19   67 1
  47   20   39 am
  48   20   68 1
  49   21   22 2
  50   21   23 2
  51   21   24 1
  52   24   25 ar
  53   24   29 ar
  54   25   26 ar
  55   25   35 1
  56   26   27 ar
  57   26   36 1
  58   27   28 ar
  59   27   30 1
  60   28   29 ar
  61   28   33 1
  62   29   34 1
  63   30   31 1
  64   31   32 1
  65   31   37 1
  66   31   38 1
  67   32   33 1
  68   32   69 1
  69   32   70 1
  70   33   71 1
  71   33   72 1
  72   34   73 1
  73   34   74 1
  74   34   75 1
  75   35   76 1
  76   35   77 1
  77   35   78 1
  78   36   79 1
  79   36   80 1
  80   36   81 1
  81   37   82 1
  82   37   83 1
  83   37   84 1
  84   38   85 1
  85   38   86 1
  86   38   87 1
  87   39   40 1
  88   39   41 2
  89   40   88 1
  90   40   89 1
  91   40   90 1

#	End of record

