#	Name: ASD01885436
#	Creating user name:	WinNT
#	Creation time:	15. 06. 2019 19:49

#	Modifying user name:	WinNT
#	Modification time:	15. 06. 2019 19:49

#	Program:	/corina/corina34_cracker 3.40 0067  02.08.2006

@<TRIPOS>MOLECULE
ASD01885436
  37   39    0    0    0
SMALL
NO_CHARGES


@<TRIPOS>ATOM
   1 C1            -0.0385     1.4143     0.0072 C.ar    
   2 C2            -0.0161     0.0209     0.0394 C.ar    
   3 N3            -1.1312    -0.7538     0.0489 N.2     
   4 C4            -2.1898    -0.5711    -0.6529 C.2     
   5 C5            -2.3296     0.6043    -1.5843 C.3     
   6 C6            -2.2832     1.8658    -0.7598 C.2     
   7 N7            -1.2059     2.1653    -0.0333 N.am    
   8 C8             1.1673     2.1175     0.0093 C.ar    
   9 C9             2.3726     1.4501     0.0391 C.ar    
  10 C10            2.3991     0.0659     0.0666 C.ar    
  11 C11            1.2215    -0.6449     0.0673 C.ar    
  12 C12           -3.2970    -1.5364    -0.5452 C.ar    
  13 O13           -3.2359     2.6165    -0.7578 O.2     
  14 C14           -3.1333    -2.7117     0.1952 C.ar    
  15 C15           -4.1704    -3.6171     0.2966 C.ar    
  16 C16           -5.3753    -3.3703    -0.3310 C.ar    
  17 C17           -5.5536    -2.2004    -1.0747 C.ar    
  18 C18           -4.5144    -1.2782    -1.1769 C.ar    
  19 C19           -6.8041    -1.9472    -1.7251 C.1     
  20 N20           -7.7961    -1.7463    -2.2409 N.1     
  21 S21            3.8820     2.3591     0.0417 S.o2    
  22 C22            4.2456     2.6277     1.7985 C.3     
  23 O23            4.8284     1.4685    -0.5329 O.2     
  24 O24            3.5525     3.5872    -0.5927 O.2     
  25 H25           -1.5097     0.6040    -2.3026 H       
  26 H26           -3.2815     0.5444    -2.1118 H       
  27 H27           -1.2404     2.9689     0.5087 H       
  28 H28            1.1555     3.1972    -0.0130 H       
  29 H29            3.3445    -0.4557     0.0876 H       
  30 H30            1.2480    -1.7244     0.0890 H       
  31 H31           -2.1933    -2.9116     0.6881 H       
  32 H32           -4.0387    -4.5230     0.8695 H       
  33 H33           -6.1820    -4.0834    -0.2474 H       
  34 H34           -4.6469    -0.3726    -1.7502 H       
  35 H35            4.3495     1.6651     2.2993 H       
  36 H36            5.1744     3.1898     1.8955 H       
  37 H37            3.4314     3.1895     2.2563 H       
@<TRIPOS>BOND
   1    1    2 ar
   2    1    8 ar
   3    1    7 1
   4    2    3 1
   5    2   11 ar
   6    3    4 2
   7    4    5 1
   8    4   12 1
   9    5    6 1
  10    5   25 1
  11    5   26 1
  12    6    7 am
  13    6   13 2
  14    7   27 1
  15    8    9 ar
  16    8   28 1
  17    9   10 ar
  18    9   21 1
  19   10   11 ar
  20   10   29 1
  21   11   30 1
  22   12   14 ar
  23   12   18 ar
  24   14   15 ar
  25   14   31 1
  26   15   16 ar
  27   15   32 1
  28   16   17 ar
  29   16   33 1
  30   17   18 ar
  31   17   19 1
  32   18   34 1
  33   19   20 3
  34   21   22 1
  35   21   23 2
  36   21   24 2
  37   22   35 1
  38   22   36 1
  39   22   37 1

#	End of record

