#	Name: ASD01913748
#	Creating user name:	WinNT
#	Creation time:	15. 06. 2019 20:02

#	Modifying user name:	WinNT
#	Modification time:	15. 06. 2019 20:02

#	Program:	/corina/corina34_cracker 3.40 0067  02.08.2006

@<TRIPOS>MOLECULE
ASD01913748
  46   47    0    0    0
SMALL
NO_CHARGES


@<TRIPOS>ATOM
   1 O1            -0.0163     1.3509     0.0095 O.3     
   2 C2             0.0021    -0.0041     0.0020 C.ar    
   3 C3            -1.1997    -0.7066     0.0097 C.ar    
   4 C4            -1.1741    -2.0870     0.0016 C.ar    
   5 C5             0.0722    -2.7299    -0.0142 C.ar    
   6 C6             1.2331    -1.9555    -0.0211 C.ar    
   7 N7             1.1628    -0.6409    -0.0180 N.ar    
   8 C8             0.1548    -4.2038    -0.0229 C.2     
   9 N9             1.3578    -4.8112    -0.0381 N.am    
  10 O10           -0.8624    -4.8697    -0.0164 O.2     
  11 C11            1.2480     2.0170     0.0010 C.3     
  12 C12            1.0303     3.5081     0.0111 C.ar    
  13 C13            0.9391     4.2040     1.2068 C.ar    
  14 C14            0.7397     5.5712     1.1768 C.ar    
  15 N15            0.6360     6.2127     0.0294 N.ar    
  16 C16            0.7177     5.5836    -1.1267 C.ar    
  17 C17            0.9222     4.2176    -1.1752 C.ar    
  18 C18            1.4397    -6.2739    -0.0468 C.3     
  19 C19            2.9084    -6.7023    -0.0636 C.3     
  20 C20            2.9940    -8.2299    -0.0727 C.3     
  21 C21            2.2901    -8.7728    -1.3179 C.3     
  22 C22            4.4627    -8.6583    -0.0896 C.3     
  23 C23            2.3149    -8.7862     1.1804 C.3     
  24 Br24          -2.8484     0.2192     0.0317 Br      
  25 H25           -2.0911    -2.6575     0.0076 H       
  26 H26            2.1986    -2.4394    -0.0329 H       
  27 H27            2.1693    -4.2799    -0.0433 H       
  28 H28            1.8174     1.7269     0.8840 H       
  29 H29            1.8004     1.7365    -0.8958 H       
  30 H30            1.0226     3.6841     2.1498 H       
  31 H31            0.6676     6.1206     2.1039 H       
  32 H32            0.6276     6.1428    -2.0462 H       
  33 H33            0.9885     3.7080    -2.1251 H       
  34 H34            0.9559    -6.6702     0.8459 H       
  35 H35            0.9382    -6.6606    -0.9339 H       
  36 H36            3.3923    -6.3060    -0.9564 H       
  37 H37            3.4099    -6.3155     0.8235 H       
  38 H38            2.7740    -8.3765    -2.2106 H       
  39 H39            2.3511    -9.8610    -1.3244 H       
  40 H40            1.2438    -8.4676    -1.3059 H       
  41 H41            4.9642    -8.2715     0.7976 H       
  42 H42            4.5237    -9.7466    -0.0960 H       
  43 H43            4.9466    -8.2620    -0.9823 H       
  44 H44            1.2686    -8.4810     1.1924 H       
  45 H45            2.3759    -9.8744     1.1739 H       
  46 H46            2.8164    -8.3994     2.0675 H       
@<TRIPOS>BOND
   1    1    2 1
   2    1   11 1
   3    2    3 ar
   4    2    7 ar
   5    3    4 ar
   6    3   24 1
   7    4    5 ar
   8    4   25 1
   9    5    6 ar
  10    5    8 1
  11    6    7 ar
  12    6   26 1
  13    8    9 am
  14    8   10 2
  15    9   18 1
  16    9   27 1
  17   11   12 1
  18   11   28 1
  19   11   29 1
  20   12   13 ar
  21   12   17 ar
  22   13   14 ar
  23   13   30 1
  24   14   15 ar
  25   14   31 1
  26   15   16 ar
  27   16   17 ar
  28   16   32 1
  29   17   33 1
  30   18   19 1
  31   18   34 1
  32   18   35 1
  33   19   20 1
  34   19   36 1
  35   19   37 1
  36   20   21 1
  37   20   22 1
  38   20   23 1
  39   21   38 1
  40   21   39 1
  41   21   40 1
  42   22   41 1
  43   22   42 1
  44   22   43 1
  45   23   44 1
  46   23   45 1
  47   23   46 1

#	End of record

