#	Name: ASD03430263
#	Creating user name:	WinNT
#	Creation time:	15. 06. 2019 20:40

#	Modifying user name:	WinNT
#	Modification time:	15. 06. 2019 20:40

#	Program:	/corina/corina34_cracker 3.40 0067  02.08.2006

@<TRIPOS>MOLECULE
ASD03430263
  36   40    0    0    0
SMALL
NO_CHARGES


@<TRIPOS>ATOM
   1 C1            -0.0167     1.3821     0.0096 C.ar    
   2 C2             0.0021    -0.0041     0.0020 C.ar    
   3 C3             1.2028    -0.6819    -0.0149 C.ar    
   4 C4             2.4086     0.0129    -0.0146 C.ar    
   5 C5             2.3859     1.4039    -0.0114 C.ar    
   6 C6             1.1814     2.0869     0.0020 C.ar    
   7 O7             3.4716    -0.8416    -0.0038 O.3     
   8 C8             1.5513    -2.1455    -0.0482 C.3     
   9 C9             3.0370    -2.1459    -0.4336 C.3     
  10 C10            0.4283    -3.8601     1.0070 C.ar    
  11 C11            1.3143    -2.8195     1.2709 C.ar    
  12 C12            0.7183    -2.9083    -1.0380 C.2     
  13 N13            0.1007    -3.8858    -0.3450 N.am    
  14 O14            0.6204    -2.6881    -2.2266 O.2     
  15 C15            1.7777    -2.5983     2.5482 C.ar    
  16 C16            1.3688    -3.4114     3.5936 C.ar    
  17 C17            0.4922    -4.4488     3.3588 C.ar    
  18 C18            0.0146    -4.6843     2.0690 C.ar    
  19 O19           -1.2113     2.0355     0.0189 O.3     
  20 C20           -1.1866     3.4163     0.3972 C.3     
  21 C21           -0.0352     4.0989    -0.3535 C.3     
  22 O22            1.1865     3.4485     0.0116 O.3     
  23 C23           -0.8951    -5.7634     1.8270 C.1     
  24 N24           -1.6168    -6.6195     1.6350 N.1     
  25 H25           -0.9268    -0.5549     0.0098 H       
  26 H26            3.3146     1.9552    -0.0188 H       
  27 H27            3.1573    -2.2583    -1.5111 H       
  28 H28            3.5752    -2.9287     0.1007 H       
  29 H29           -0.5023    -4.5329    -0.7431 H       
  30 H30            2.4646    -1.7864     2.7368 H       
  31 H31            1.7369    -3.2317     4.5929 H       
  32 H32            0.1746    -5.0810     4.1748 H       
  33 H33           -2.1317     3.8881     0.1283 H       
  34 H34           -1.0258     3.5002     1.4720 H       
  35 H35           -0.1922     4.0082    -1.4283 H       
  36 H36            0.0114     5.1519    -0.0758 H       
@<TRIPOS>BOND
   1    1    2 ar
   2    1    6 ar
   3    1   19 1
   4    2    3 ar
   5    2   25 1
   6    3    4 ar
   7    3    8 1
   8    4    5 ar
   9    4    7 1
  10    5    6 ar
  11    5   26 1
  12    6   22 1
  13    7    9 1
  14    8    9 1
  15    8   11 1
  16    8   12 1
  17    9   27 1
  18    9   28 1
  19   10   11 ar
  20   10   13 1
  21   10   18 ar
  22   11   15 ar
  23   12   13 am
  24   12   14 2
  25   13   29 1
  26   15   16 ar
  27   15   30 1
  28   16   17 ar
  29   16   31 1
  30   17   18 ar
  31   17   32 1
  32   18   23 1
  33   19   20 1
  34   20   21 1
  35   20   33 1
  36   20   34 1
  37   21   22 1
  38   21   35 1
  39   21   36 1
  40   23   24 3

#	End of record

