#	Name: ASD06020101
#	Creating user name:	WinNT
#	Creation time:	15. 06. 2019 21:04

#	Modifying user name:	WinNT
#	Modification time:	15. 06. 2019 21:04

#	Program:	/corina/corina34_cracker 3.40 0067  02.08.2006

@<TRIPOS>MOLECULE
ASD06020101
  49   53    0    0    0
SMALL
NO_CHARGES


@<TRIPOS>ATOM
   1 C1            -2.4273     1.3550     0.0281 C.ar    
   2 C2            -2.4005    -0.0435     0.0129 C.ar    
   3 C3            -3.6044    -0.7570     0.0280 C.ar    
   4 C4            -4.8029     0.0007     0.0584 C.ar    
   5 C5            -4.7377     1.3582     0.0715 C.ar    
   6 N6            -3.5804     2.0007     0.0565 N.ar    
   7 S7            -1.0725    -1.1980    -0.0241 S.3     
   8 C8            -2.2192    -2.5318    -0.0167 C.2     
   9 N9            -3.4306    -2.0792     0.0108 N.2     
  10 N10           -1.2335     2.0703     0.0191 N.pl3   
  11 C11           -1.2547     3.4579    -0.0782 C.ar    
  12 C12           -0.0699     4.1836     0.0244 C.ar    
  13 N13           -2.4026     4.0934    -0.2745 N.ar    
  14 N14           -0.0947     5.4993    -0.0685 N.ar    
  15 C15           -1.2421     6.1292    -0.2587 C.ar    
  16 C16           -2.4186     5.4125    -0.3664 C.ar    
  17 C17           -1.2658     7.6323    -0.3637 C.3     
  18 O18           -0.3196     9.5879     3.2159 O.3     
  19 C19           -1.2491    10.2447     2.3499 C.3     
  20 C20           -1.1157     9.6701     0.9371 C.3     
  21 N21           -1.3292     8.2163     0.9827 N.3     
  22 C22           -0.3583     7.5752     1.8814 C.3     
  23 C23           -0.4992     8.1708     3.2847 C.3     
  24 C24           -1.8516    -3.9630    -0.0386 C.ar    
  25 C25           -2.8465    -4.9435    -0.0303 C.ar    
  26 C26           -2.4957    -6.2787    -0.0508 C.ar    
  27 C27           -1.1624    -6.6474    -0.0792 C.ar    
  28 C28           -0.1712    -5.6834    -0.0872 C.ar    
  29 C29           -0.5069    -4.3422    -0.0736 C.ar    
  30 F30            0.4622    -3.4011    -0.0880 F       
  31 Cl31          -4.5202    -4.4842     0.0065 Cl      
  32 H32           -5.7609    -0.4977     0.0708 H       
  33 H33           -5.6549     1.9281     0.0947 H       
  34 H34           -0.3866     1.6013     0.0808 H       
  35 H35            0.8672     3.6699     0.1800 H       
  36 H36           -3.3527     5.9304    -0.5265 H       
  37 H37           -0.3616     7.9757    -0.8664 H       
  38 H38           -2.1399     7.9429    -0.9360 H       
  39 H39           -2.2634    10.0826     2.7145 H       
  40 H40           -1.0353    11.3134     2.3298 H       
  41 H41           -1.8612    10.1272     0.2864 H       
  42 H42           -0.1178     9.8795     0.5517 H       
  43 H43           -0.5509     6.5030     1.9200 H       
  44 H44            0.6517     7.7511     1.5111 H       
  45 H45            0.2568     7.7395     3.9408 H       
  46 H46           -1.4918     7.9483     3.6765 H       
  47 H47           -3.2642    -7.0375    -0.0444 H       
  48 H48           -0.8945    -7.6935    -0.0948 H       
  49 H49            0.8674    -5.9786    -0.1090 H       
@<TRIPOS>BOND
   1    1    2 ar
   2    1    6 ar
   3    1   10 1
   4    2    3 ar
   5    2    7 1
   6    3    4 ar
   7    3    9 1
   8    4    5 ar
   9    4   32 1
  10    5    6 ar
  11    5   33 1
  12    7    8 1
  13    8    9 2
  14    8   24 1
  15   10   11 1
  16   10   34 1
  17   11   12 ar
  18   11   13 ar
  19   12   14 ar
  20   12   35 1
  21   13   16 ar
  22   14   15 ar
  23   15   16 ar
  24   15   17 1
  25   16   36 1
  26   17   21 1
  27   17   37 1
  28   17   38 1
  29   18   19 1
  30   18   23 1
  31   19   20 1
  32   19   39 1
  33   19   40 1
  34   20   21 1
  35   20   41 1
  36   20   42 1
  37   21   22 1
  38   22   23 1
  39   22   43 1
  40   22   44 1
  41   23   45 1
  42   23   46 1
  43   24   25 ar
  44   24   29 ar
  45   25   26 ar
  46   25   31 1
  47   26   27 ar
  48   26   47 1
  49   27   28 ar
  50   27   48 1
  51   28   29 ar
  52   28   49 1
  53   29   30 1

#	End of record

