#	Name: ASD01812307
#	Creating user name:	WinNT
#	Creation time:	15. 06. 2019 19:28

#	Modifying user name:	WinNT
#	Modification time:	15. 06. 2019 19:28

#	Program:	/corina/corina34_cracker 3.40 0067  02.08.2006

@<TRIPOS>MOLECULE
ASD01812307
  63   67    0    0    0
SMALL
NO_CHARGES


@<TRIPOS>ATOM
   1 C1             0.3204     1.7112     0.0328 C.ar    
   2 C2             0.2128     0.3215     0.0173 C.ar    
   3 C3             1.3234    -0.4660    -0.0025 C.ar    
   4 C4             2.5956     0.1274    -0.0074 C.ar    
   5 C5             2.7086     1.5424     0.0083 C.ar    
   6 C6             1.5361     2.3215     0.0287 C.ar    
   7 C7             3.7665    -0.6536    -0.0272 C.ar    
   8 C8             4.9712    -0.0116    -0.0305 C.ar    
   9 C9             5.0146     1.3904    -0.0143 C.ar    
  10 N10            3.9124     2.1142     0.0042 N.ar    
  11 C11            6.3302     2.0744    -0.0182 C.2     
  12 N12            6.3899     3.4207    -0.0028 N.am    
  13 O13            7.3545     1.4211    -0.0352 O.2     
  14 C14            7.6897     4.0965    -0.0066 C.3     
  15 C15            7.5448     5.4844     0.6208 C.3     
  16 C16            8.9023     6.1901     0.6169 C.3     
  17 C17            9.3998     6.3308    -0.8231 C.3     
  18 C18            9.5447     4.9429    -1.4505 C.3     
  19 C19            8.1872     4.2371    -1.4466 C.3     
  20 C20            3.6922    -2.1586    -0.0438 C.3     
  21 C21            3.6020    -2.6728     1.3699 C.2     
  22 C22            2.3431    -2.9629     1.9346 C.2     
  23 C23            2.3070    -3.4376     3.2476 C.2     
  24 C24            3.5122    -3.5920     3.9086 C.2     
  25 N25            4.7024    -3.2735     3.2520 N.3     
  26 C26            4.7200    -2.8590     2.0876 C.2     
  27 C27            3.5395    -4.0860     5.2891 C.2     
  28 O28            7.0802     5.3530     1.9658 O.3     
  29 O29            5.3866    -2.2751     4.0738 O.3     
  30 C30            4.6911    -4.2924     6.0861 C.2     
  31 N31            4.3043    -4.7369     7.2499 N.2     
  32 N32            2.9087    -4.8370     7.2598 N.pl3   
  33 C33            2.4426    -4.4332     6.0613 C.2     
  34 C34            2.0916    -5.2979     8.3850 C.3     
  35 H35           -0.5761     2.3133     0.0439 H       
  36 H36           -0.7651    -0.1369     0.0214 H       
  37 H37            1.2261    -1.5416    -0.0140 H       
  38 H38            1.6016     3.3995     0.0412 H       
  39 H39            5.8884    -0.5816    -0.0452 H       
  40 H40            5.5721     3.9423     0.0108 H       
  41 H41            8.4056     3.5102     0.5695 H       
  42 H42            6.8289     6.0706     0.0447 H       
  43 H43            8.7991     7.1788     1.0638 H       
  44 H44            9.6182     5.6039     1.1930 H       
  45 H45            8.6839     6.9170    -1.3992 H       
  46 H46           10.3669     6.8335    -0.8260 H       
  47 H47            9.8991     5.0431    -2.4764 H       
  48 H48           10.2606     4.3566    -0.8744 H       
  49 H49            8.2904     3.2484    -1.8936 H       
  50 H50            7.4712     4.8234    -2.0227 H       
  51 H51            2.8099    -2.4727    -0.6016 H       
  52 H52            4.5858    -2.5613    -0.5206 H       
  53 H53            1.4339    -2.8220     1.3689 H       
  54 H54            1.3706    -3.6756     3.7302 H       
  55 H55            5.2792    -4.1011     3.2735 H       
  56 H56            5.6724    -2.6293     1.6331 H       
  57 H57            6.9651     6.1955     2.4262 H       
  58 H58            6.2323    -1.9789     3.7100 H       
  59 H59            5.7122    -4.1136     5.7832 H       
  60 H60            1.4071    -4.3938     5.7572 H       
  61 H61            1.8218    -4.4470     9.0106 H       
  62 H62            1.1861    -5.7720     8.0063 H       
  63 H63            2.6588    -6.0175     8.9753 H       
@<TRIPOS>BOND
   1    1    2 ar
   2    1    6 ar
   3    1   35 1
   4    2    3 ar
   5    2   36 1
   6    3    4 ar
   7    3   37 1
   8    4    5 ar
   9    4    7 ar
  10    5    6 ar
  11    5   10 ar
  12    6   38 1
  13    7    8 ar
  14    7   20 1
  15    8    9 ar
  16    8   39 1
  17    9   10 ar
  18    9   11 1
  19   11   12 am
  20   11   13 2
  21   12   14 1
  22   12   40 1
  23   14   15 1
  24   14   19 1
  25   14   41 1
  26   15   16 1
  27   15   28 1
  28   15   42 1
  29   16   17 1
  30   16   43 1
  31   16   44 1
  32   17   18 1
  33   17   45 1
  34   17   46 1
  35   18   19 1
  36   18   47 1
  37   18   48 1
  38   19   49 1
  39   19   50 1
  40   20   21 1
  41   20   51 1
  42   20   52 1
  43   21   22 2
  44   21   26 1
  45   22   23 1
  46   22   53 1
  47   23   24 2
  48   23   54 1
  49   24   25 1
  50   24   27 1
  51   25   26 2
  52   25   29 1
  53   25   55 1
  54   26   56 1
  55   27   30 1
  56   27   33 2
  57   28   57 1
  58   29   58 1
  59   30   31 2
  60   30   59 1
  61   31   32 1
  62   32   33 1
  63   32   34 1
  64   33   60 1
  65   34   61 1
  66   34   62 1
  67   34   63 1

#	End of record

