#	Name: ASD02590027
#	Creating user name:	WinNT
#	Creation time:	15. 06. 2019 20:25

#	Modifying user name:	WinNT
#	Modification time:	15. 06. 2019 20:25

#	Program:	/corina/corina34_cracker 3.40 0067  02.08.2006

@<TRIPOS>MOLECULE
ASD02590027
  36   39    0    0    0
SMALL
NO_CHARGES


@<TRIPOS>ATOM
   1 C1            -0.0168     1.3897     0.0097 C.ar    
   2 C2            -0.0074     0.0146     0.2376 C.ar    
   3 C3            -1.1862    -0.6989     0.2474 C.ar    
   4 C4            -2.3924    -0.0474     0.0298 C.ar    
   5 C5            -2.4117     1.3401    -0.2006 C.ar    
   6 C6            -1.2092     2.0548    -0.2031 C.ar    
   7 N7            -3.7094    -0.4642    -0.0219 N.pl3   
   8 C8            -4.4739     0.6422    -0.2741 C.2     
   9 N9            -3.7058     1.6984    -0.3780 N.2     
  10 C10           -5.9476     0.6452    -0.4098 C.ar    
  11 C11           -6.6158     1.8411    -0.6679 C.ar    
  12 C12           -7.9949     1.8277    -0.7922 C.ar    
  13 C13           -8.6604     0.6186    -0.6543 C.ar    
  14 C14           -7.9337    -0.5313    -0.3984 C.ar    
  15 N15           -6.6224    -0.4923    -0.2901 N.ar    
  16 N16            1.1876     2.1016     0.0020 N.3     
  17 C17            2.2716     1.2996    -0.5944 C.3     
  18 C18            2.8493     2.1146    -1.7706 C.3     
  19 C19            2.4429     3.5703    -1.4201 C.3     
  20 C20            1.0552     3.3585    -0.7650 C.3     
  21 H21            0.9296    -0.4949     0.4073 H       
  22 H22           -1.1716    -1.7643     0.4240 H       
  23 H23           -1.2120     3.1204    -0.3786 H       
  24 H24           -4.0313    -1.3713     0.0981 H       
  25 H25           -6.0657     2.7650    -0.7692 H       
  26 H26           -8.5401     2.7384    -0.9918 H       
  27 H27           -9.7357     0.5748    -0.7453 H       
  28 H28           -8.4492    -1.4741    -0.2901 H       
  29 H29            3.0491     1.1170     0.1474 H       
  30 H30            1.8744     0.3524    -0.9593 H       
  31 H31            3.9341     2.0166    -1.8114 H       
  32 H32            2.3975     1.8047    -2.7129 H       
  33 H33            3.1451     4.0122    -0.7132 H       
  34 H34            2.3610     4.1802    -2.3198 H       
  35 H35            0.2858     3.2568    -1.5303 H       
  36 H36            0.8203     4.1875    -0.0974 H       
@<TRIPOS>BOND
   1    1    2 ar
   2    1   16 1
   3    1    6 ar
   4    2    3 ar
   5    2   21 1
   6    3    4 ar
   7    3   22 1
   8    4    5 ar
   9    4    7 1
  10    5    6 ar
  11    5    9 1
  12    6   23 1
  13    7    8 1
  14    7   24 1
  15    8    9 2
  16    8   10 1
  17   10   11 ar
  18   10   15 ar
  19   11   12 ar
  20   11   25 1
  21   12   13 ar
  22   12   26 1
  23   13   14 ar
  24   13   27 1
  25   14   15 ar
  26   14   28 1
  27   16   17 1
  28   16   20 1
  29   17   18 1
  30   17   29 1
  31   17   30 1
  32   18   19 1
  33   18   31 1
  34   18   32 1
  35   19   20 1
  36   19   33 1
  37   19   34 1
  38   20   35 1
  39   20   36 1

#	End of record

