#	Name: ASD07930292
#	Creating user name:	WinNT
#	Creation time:	15. 06. 2019 21:12

#	Modifying user name:	WinNT
#	Modification time:	15. 06. 2019 21:12

#	Program:	/corina/corina34_cracker 3.40 0067  02.08.2006

@<TRIPOS>MOLECULE
ASD07930292
  60   65    0    0    0
SMALL
NO_CHARGES


@<TRIPOS>ATOM
   1 C1             0.6321     0.4944    -0.3718 C.2     
   2 C2             0.9465    -0.8369    -0.3578 C.2     
   3 C3             2.3521    -1.2295    -0.2297 C.2     
   4 N4             3.2949    -0.2766    -0.1276 N.am    
   5 C5             2.9532     1.0567    -0.1460 C.2     
   6 C6             1.6543     1.4454    -0.2643 C.2     
   7 C7             4.7130    -0.6357     0.0085 C.3     
   8 C8             5.5348     0.3384    -0.8488 C.3     
   9 N9             5.2934     1.7047    -0.3638 N.am    
  10 C10            4.0297     2.0658    -0.0358 C.2     
  11 C11            6.3985     2.6580    -0.2375 C.3     
  12 O12            3.7852     3.1955     0.3413 O.2     
  13 O13            2.6635    -2.4083    -0.2155 O.2     
  14 N14           -0.0556    -1.8055    -0.4635 N.pl3   
  15 C15           -0.2230    -2.6871    -1.4842 C.2     
  16 N16           -1.2647    -3.4293    -1.2254 N.2     
  17 C17           -1.7945    -3.0579    -0.0502 C.2     
  18 C18           -1.0525    -2.0499     0.4460 C.2     
  19 C19           -3.0072    -3.6677     0.6044 C.3     
  20 C20            6.6425     3.3376    -1.5864 C.3     
  21 O21            5.4958     4.1116    -1.9442 O.3     
  22 C22            5.5015     4.6909    -3.1731 C.ar    
  23 C23            6.5392     4.4389    -4.0554 C.ar    
  24 C24            6.5439     5.0289    -5.3056 C.ar    
  25 C25            5.5149     5.8730    -5.6830 C.ar    
  26 C26            4.4746     6.1329    -4.8135 C.ar    
  27 C27            4.4570     5.5392    -3.5538 C.ar    
  28 C28            3.3417     5.8150    -2.6158 C.ar    
  29 C29            3.0288     7.1283    -2.2702 C.ar    
  30 C30            1.9881     7.3824    -1.3951 C.ar    
  31 C31            1.2544     6.3247    -0.8605 C.ar    
  32 C32            1.5676     5.0186    -1.2054 C.ar    
  33 C33            2.6011     4.7614    -2.0828 C.ar    
  34 O34            1.4864     8.5533    -0.9039 O.3     
  35 C35            0.1831     8.2261    -0.3869 C.3     
  36 O36            0.2939     6.8345    -0.0348 O.3     
  37 H37           -0.3963     0.8096    -0.4694 H       
  38 H38            1.4097     2.4973    -0.2755 H       
  39 H39            5.0153    -0.5527     1.0524 H       
  40 H40            4.8696    -1.6562    -0.3410 H       
  41 H41            6.5947     0.1001    -0.7596 H       
  42 H42            5.2254     0.2597    -1.8910 H       
  43 H43            6.1451     3.4114     0.5083 H       
  44 H44            7.3005     2.1298     0.0716 H       
  45 H45            0.4011    -2.7606    -2.3625 H       
  46 H46           -1.2153    -1.5290     1.3780 H       
  47 H47           -2.6973    -4.4911     1.2480 H       
  48 H48           -3.5165    -2.9115     1.2018 H       
  49 H49           -3.6850    -4.0416    -0.1630 H       
  50 H50            7.5126     3.9900    -1.5125 H       
  51 H51            6.8209     2.5790    -2.3485 H       
  52 H52            7.3454     3.7811    -3.7663 H       
  53 H53            7.3549     4.8303    -5.9907 H       
  54 H54            5.5257     6.3306    -6.6612 H       
  55 H55            3.6732     6.7929    -5.1112 H       
  56 H56            3.5984     7.9468    -2.6850 H       
  57 H57            0.9979     4.2006    -0.7897 H       
  58 H58            2.8420     3.7430    -2.3495 H       
  59 H59           -0.0414     8.8274     0.4941 H       
  60 H60           -0.5794     8.3678    -1.1529 H       
@<TRIPOS>BOND
   1    1    2 2
   2    1    6 1
   3    1   37 1
   4    2    3 1
   5    2   14 1
   6    3    4 am
   7    3   13 2
   8    4    5 1
   9    4    7 1
  10    5    6 2
  11    5   10 1
  12    6   38 1
  13    7    8 1
  14    7   39 1
  15    7   40 1
  16    8    9 1
  17    8   41 1
  18    8   42 1
  19    9   10 am
  20    9   11 1
  21   10   12 2
  22   11   20 1
  23   11   43 1
  24   11   44 1
  25   14   15 1
  26   14   18 1
  27   15   16 2
  28   15   45 1
  29   16   17 1
  30   17   18 2
  31   17   19 1
  32   18   46 1
  33   19   47 1
  34   19   48 1
  35   19   49 1
  36   20   21 1
  37   20   50 1
  38   20   51 1
  39   21   22 1
  40   22   23 ar
  41   22   27 ar
  42   23   24 ar
  43   23   52 1
  44   24   25 ar
  45   24   53 1
  46   25   26 ar
  47   25   54 1
  48   26   27 ar
  49   26   55 1
  50   27   28 1
  51   28   29 ar
  52   28   33 ar
  53   29   30 ar
  54   29   56 1
  55   30   31 ar
  56   30   34 1
  57   31   32 ar
  58   31   36 1
  59   32   33 ar
  60   32   57 1
  61   33   58 1
  62   34   35 1
  63   35   36 1
  64   35   59 1
  65   35   60 1

#	End of record

