#	Name: ASD08150410
#	Creating user name:	WinNT
#	Creation time:	15. 06. 2019 21:16

#	Modifying user name:	WinNT
#	Modification time:	15. 06. 2019 21:16

#	Program:	/corina/corina34_cracker 3.40 0067  02.08.2006

@<TRIPOS>MOLECULE
ASD08150410
  37   40    0    0    0
SMALL
NO_CHARGES


@<TRIPOS>ATOM
   1 N1            -0.0162     1.3430     0.0094 N.am    
   2 C2             0.0576     0.0891     0.4965 C.2     
   3 C3             1.2771    -0.6181     0.4929 C.2     
   4 C4             2.4001    -0.0406    -0.0048 C.2     
   5 C5             2.3264     1.2784    -0.5181 C.ar    
   6 C6             3.4617     1.9229    -1.0462 C.ar    
   7 N7             3.3910     3.1393    -1.5194 N.ar    
   8 C8             2.2457     3.8390    -1.5303 C.ar    
   9 C9             1.0543     3.2694    -1.0191 C.ar    
  10 C10            1.0972     1.9549    -0.4998 C.ar    
  11 C11           -0.1335     4.0099    -1.0353 C.ar    
  12 C12           -0.1305     5.2888    -1.5500 C.ar    
  13 C13            1.0462     5.8464    -2.0529 C.ar    
  14 C14            2.2124     5.1436    -2.0473 C.ar    
  15 O15           -0.9437    -0.4410     0.9468 O.2     
  16 O16           -1.2813     6.0116    -1.5682 O.3     
  17 C17           -1.2402     2.0220     0.0189 C.ar    
  18 C18           -2.1002     1.9213    -1.0667 C.ar    
  19 C19           -3.3075     2.5922    -1.0540 C.ar    
  20 C20           -3.6599     3.3638     0.0379 C.ar    
  21 C21           -2.8056     3.4661     1.1207 C.ar    
  22 C22           -1.5997     2.7933     1.1167 C.ar    
  23 C23           -4.2414     2.4836    -2.2318 C.3     
  24 H24            1.3180    -1.6225     0.8878 H       
  25 H25            3.3366    -0.5785    -0.0093 H       
  26 H26            4.4081     1.4028    -1.0602 H       
  27 H27           -1.0462     3.5821    -0.6474 H       
  28 H28            1.0312     6.8495    -2.4529 H       
  29 H29            3.1134     5.5908    -2.4406 H       
  30 H30           -1.4250     6.5425    -0.7729 H       
  31 H31           -1.8251     1.3194    -1.9202 H       
  32 H32           -4.6041     3.8879     0.0450 H       
  33 H33           -3.0838     4.0695     1.9721 H       
  34 H34           -0.9331     2.8736     1.9626 H       
  35 H35           -4.9160     1.6403    -2.0839 H       
  36 H36           -4.8217     3.4019    -2.3212 H       
  37 H37           -3.6618     2.3299    -3.1421 H       
@<TRIPOS>BOND
   1    1    2 am
   2    1   10 1
   3    1   17 1
   4    2    3 1
   5    2   15 2
   6    3    4 2
   7    3   24 1
   8    4    5 1
   9    4   25 1
  10    5    6 ar
  11    5   10 ar
  12    6    7 ar
  13    6   26 1
  14    7    8 ar
  15    8    9 ar
  16    8   14 ar
  17    9   10 ar
  18    9   11 ar
  19   11   12 ar
  20   11   27 1
  21   12   13 ar
  22   12   16 1
  23   13   14 ar
  24   13   28 1
  25   14   29 1
  26   16   30 1
  27   17   18 ar
  28   17   22 ar
  29   18   19 ar
  30   18   31 1
  31   19   20 ar
  32   19   23 1
  33   20   21 ar
  34   20   32 1
  35   21   22 ar
  36   21   33 1
  37   22   34 1
  38   23   35 1
  39   23   36 1
  40   23   37 1

#	End of record

