#	Name: ASD04590839
#	Creating user name:	WinNT
#	Creation time:	15. 06. 2019 20:51

#	Modifying user name:	WinNT
#	Modification time:	15. 06. 2019 20:51

#	Program:	/corina/corina34_cracker 3.40 0067  02.08.2006

@<TRIPOS>MOLECULE
ASD04590839
  57   63    0    0    0
SMALL
NO_CHARGES


@<TRIPOS>ATOM
   1 N1            -0.0170     1.3232    -0.0111 N.ar    
   2 C2             0.0017    -0.0035    -0.0048 C.ar    
   3 N3             1.1299    -0.6949    -0.0118 N.ar    
   4 C4             2.3050    -0.0729    -0.0258 C.ar    
   5 C5             2.3189     1.3365    -0.0332 C.ar    
   6 C6             1.1072     2.0202    -0.0251 C.ar    
   7 N7             3.6031    -0.5196    -0.0356 N.pl3   
   8 C8             4.4823     0.5494    -0.0493 C.ar    
   9 C9             3.7313     1.7384    -0.0484 C.ar    
  10 C10            5.8681     0.6417    -0.0622 C.ar    
  11 N11            6.4613     1.8180    -0.0729 N.ar    
  12 C12            5.7851     2.9532    -0.0725 C.ar    
  13 C13            4.4064     2.9584    -0.0613 C.ar    
  14 N14           -1.2019    -0.6887     0.0098 N.pl3   
  15 C15           -2.4022     0.0122     0.1304 C.ar    
  16 N16           -2.3891     1.3195     0.3310 N.ar    
  17 N17           -3.4683     2.0042     0.4478 N.ar    
  18 C18           -4.6668     1.4483     0.3753 C.ar    
  19 C19           -4.7831     0.0733     0.1655 C.ar    
  20 C20           -3.6194    -0.6637     0.0338 C.ar    
  21 N21           -5.8099     2.2334     0.5087 N.3     
  22 C22            4.0018    -1.9293    -0.0316 C.3     
  23 C23            3.4609    -2.6264     1.2291 C.3     
  24 C24            2.5278    -3.7546     0.7428 C.3     
  25 C25            3.0202    -4.0623    -0.6931 C.3     
  26 C26            3.3785    -2.6581    -1.2399 C.3     
  27 C27           -5.4540     3.6596     0.7243 C.3     
  28 C28           -6.7095     4.2798     1.3743 C.3     
  29 C29           -7.4459     3.0956     2.0339 C.3     
  30 C30           -6.5734     1.8595     1.7270 C.3     
  31 C31           -6.8444     4.2069     2.8966 C.3     
  32 N32           -5.6366     3.8859     3.6687 N.3     
  33 H33            1.0849     3.0999    -0.0300 H       
  34 H34            6.4645    -0.2586    -0.0631 H       
  35 H35            6.3204     3.8911    -0.0816 H       
  36 H36            3.8597     3.8898    -0.0610 H       
  37 H37           -1.2103    -1.6559    -0.0637 H       
  38 H38           -5.7518    -0.4003     0.1036 H       
  39 H39           -3.6520    -1.7307    -0.1299 H       
  40 H40            5.0882    -2.0099    -0.0658 H       
  41 H41            4.2848    -3.0461     1.8062 H       
  42 H42            2.9018    -1.9159     1.8379 H       
  43 H43            2.6300    -4.6345     1.3779 H       
  44 H44            1.4928    -3.4130     0.7262 H       
  45 H45            3.9009    -4.7042    -0.6702 H       
  46 H46            2.2255    -4.5162    -1.2851 H       
  47 H47            2.4809    -2.1395    -1.5768 H       
  48 H48            4.1014    -2.7379    -2.0518 H       
  49 H49           -4.5990     3.7408     1.3955 H       
  50 H50           -5.2390     4.1458    -0.2273 H       
  51 H51           -7.2429     5.0463     0.8121 H       
  52 H52           -8.5274     2.9806     1.9628 H       
  53 H53           -7.2011     0.9904     1.5304 H       
  54 H54           -5.8935     1.6590     2.5551 H       
  55 H55           -7.5352     4.9021     3.3736 H       
  56 H56           -5.8350     3.8632     4.6577 H       
  57 H57           -5.2317     3.0144     3.3610 H       
@<TRIPOS>BOND
   1    1    2 ar
   2    1    6 ar
   3    2    3 ar
   4    2   14 1
   5    3    4 ar
   6    4    5 ar
   7    4    7 1
   8    5    6 ar
   9    5    9 1
  10    6   33 1
  11    7    8 1
  12    7   22 1
  13    8    9 ar
  14    8   10 ar
  15    9   13 ar
  16   10   11 ar
  17   10   34 1
  18   11   12 ar
  19   12   13 ar
  20   12   35 1
  21   13   36 1
  22   14   15 1
  23   14   37 1
  24   15   16 ar
  25   15   20 ar
  26   16   17 ar
  27   17   18 ar
  28   18   19 ar
  29   18   21 1
  30   19   20 ar
  31   19   38 1
  32   20   39 1
  33   21   27 1
  34   21   30 1
  35   22   23 1
  36   22   26 1
  37   22   40 1
  38   23   24 1
  39   23   41 1
  40   23   42 1
  41   24   25 1
  42   24   43 1
  43   24   44 1
  44   25   26 1
  45   25   45 1
  46   25   46 1
  47   26   47 1
  48   26   48 1
  49   27   28 1
  50   27   49 1
  51   27   50 1
  52   28   29 1
  53   28   31 1
  54   28   51 1
  55   29   30 1
  56   29   31 1
  57   29   52 1
  58   30   53 1
  59   30   54 1
  60   31   32 1
  61   31   55 1
  62   32   56 1
  63   32   57 1

#	End of record

