#	Name: ASD04882329
#	Creating user name:	WinNT
#	Creation time:	15. 06. 2019 20:54

#	Modifying user name:	WinNT
#	Modification time:	15. 06. 2019 20:54

#	Program:	/corina/corina34_cracker 3.40 0067  02.08.2006

@<TRIPOS>MOLECULE
ASD04882329
  87   92    0    0    0
SMALL
NO_CHARGES


@<TRIPOS>ATOM
   1 N1            -0.0551     1.3868    -0.5507 N.am    
   2 C2             0.0850    -0.0036    -0.6495 C.ar    
   3 C3            -1.0444    -0.8105    -0.8131 C.ar    
   4 C4            -0.9068    -2.1903    -0.9118 C.ar    
   5 C5             0.3422    -2.7671    -0.8487 C.ar    
   6 C6             1.4758    -1.9660    -0.6852 C.ar    
   7 C7             1.3407    -0.5781    -0.5910 C.ar    
   8 N8            -2.3092    -0.2316    -0.8769 N.3     
   9 C9            -2.9653    -0.5391    -2.1554 C.3     
  10 C10           -3.1422    -0.6599     0.2556 C.3     
  11 C11           -4.4924     0.0580     0.1925 C.3     
  12 N12           -5.1485    -0.2495    -1.0861 N.3     
  13 C13           -4.3155     0.1788    -2.2185 C.3     
  14 C14            2.8136    -2.5843    -0.6172 C.2     
  15 O15            3.7993    -1.8866    -0.4750 O.2     
  16 C16            0.8718     2.1126     0.1054 C.2     
  17 C17            0.7891     3.5816     0.1084 C.2     
  18 O18            1.7768     1.5531     0.6951 O.2     
  19 N19            2.9433    -3.9224    -0.7127 N.am    
  20 C20            1.7275     4.4655     0.6127 C.2     
  21 C21            1.1985     5.7376     0.3827 C.2     
  22 N22            0.0413     5.5899    -0.2103 N.2     
  23 N23           -0.2262     4.3467    -0.3912 N.pl3   
  24 C24            4.2717    -4.5363    -0.6452 C.3     
  25 C25            4.1392    -6.0547    -0.7781 C.3     
  26 C26           -6.4172     0.3312    -1.1500 C.ar    
  27 C27           -6.5576     1.7094    -1.0513 C.ar    
  28 C28           -7.5410    -0.4681    -1.3183 C.ar    
  29 C29           -8.7938     0.1092    -1.3811 C.ar    
  30 C30           -8.9305     1.4816    -1.2771 C.ar    
  31 C31           -7.8137     2.2804    -1.1149 C.ar    
  32 C32           -7.3929    -1.9634    -1.4327 C.3     
  33 C33           -1.4402     3.8281    -1.0265 C.3     
  34 C34           -1.1357     3.4530    -2.4783 C.3     
  35 C35            1.8452     7.0476     0.7523 C.3     
  36 C36            1.6278     7.5661     2.1752 C.3     
  37 C37            2.9920     7.0085     1.7644 C.3     
  38 C38            5.5266    -6.6959    -0.7075 C.3     
  39 N39            5.3997    -8.1498    -0.8348 N.am    
  40 C40            5.4336    -8.8755    -2.1100 C.3     
  41 C41            4.8389   -10.2687    -1.8073 C.3     
  42 C42            5.1326   -10.4154    -0.2962 C.3     
  43 C43            5.2430    -8.9911     0.2018 C.2     
  44 O44            5.1904    -8.6563     1.3663 O.2     
  45 H45           -0.8172     1.8276    -0.9580 H       
  46 H46           -1.7813    -2.8114    -1.0378 H       
  47 H47            0.4458    -3.8394    -0.9253 H       
  48 H48            2.2149     0.0435    -0.4650 H       
  49 H49           -2.3350    -0.2012    -2.9781 H       
  50 H50           -3.1214    -1.6149    -2.2346 H       
  51 H51           -3.3002    -1.7371     0.2038 H       
  52 H52           -2.6409    -0.4101     1.1907 H       
  53 H53           -5.1227    -0.2799     1.0151 H       
  54 H54           -4.3363     1.1338     0.2716 H       
  55 H55           -4.1575     1.2560    -2.1667 H       
  56 H56           -4.8168    -0.0710    -3.1536 H       
  57 H57            2.1570    -4.4789    -0.8262 H       
  58 H58            2.6684     4.2231     1.0842 H       
  59 H59            4.8907    -4.1532    -1.4565 H       
  60 H60            4.7355    -4.2944     0.3111 H       
  61 H61            3.5202    -6.4378     0.0332 H       
  62 H62            3.6753    -6.2966    -1.7344 H       
  63 H63           -5.6856     2.3340    -0.9245 H       
  64 H64           -9.6678    -0.5116    -1.5119 H       
  65 H65           -9.9114     1.9306    -1.3273 H       
  66 H66           -7.9239     3.3517    -1.0340 H       
  67 H67           -7.4481    -2.4110    -0.4403 H       
  68 H68           -8.1940    -2.3613    -2.0557 H       
  69 H69           -6.4296    -2.1996    -1.8847 H       
  70 H70           -1.7835     2.9451    -0.4875 H       
  71 H71           -2.2170     4.5924    -1.0040 H       
  72 H72           -0.7923     4.3360    -3.0173 H       
  73 H73           -0.3589     2.6887    -2.5008 H       
  74 H74           -2.0389     3.0671    -2.9509 H       
  75 H75            1.9050     7.7848    -0.0484 H       
  76 H76            1.5449     8.6445     2.3107 H       
  77 H77            1.0169     6.9598     2.8440 H       
  78 H78            3.2787     6.0353     2.1628 H       
  79 H79            3.8067     7.7201     1.6295 H       
  80 H80            6.1455    -6.3128    -1.5188 H       
  81 H81            5.9904    -6.4540     0.2487 H       
  82 H82            4.8263    -8.3597    -2.8538 H       
  83 H83            6.4607    -8.9722    -2.4618 H       
  84 H84            3.7661   -10.2851    -1.9995 H       
  85 H85            5.3482   -11.0433    -2.3806 H       
  86 H86            4.3144   -10.9346     0.2028 H       
  87 H87            6.0729   -10.9440    -0.1399 H       
@<TRIPOS>BOND
   1    1    2 1
   2    1   16 am
   3    1   45 1
   4    2    3 ar
   5    2    7 ar
   6    3    4 ar
   7    3    8 1
   8    4    5 ar
   9    4   46 1
  10    5    6 ar
  11    5   47 1
  12    6    7 ar
  13    6   14 1
  14    7   48 1
  15    8    9 1
  16    8   10 1
  17    9   13 1
  18    9   49 1
  19    9   50 1
  20   10   11 1
  21   10   51 1
  22   10   52 1
  23   11   12 1
  24   11   53 1
  25   11   54 1
  26   12   13 1
  27   12   26 1
  28   13   55 1
  29   13   56 1
  30   14   15 2
  31   14   19 am
  32   16   18 2
  33   16   17 1
  34   17   20 2
  35   17   23 1
  36   19   24 1
  37   19   57 1
  38   20   21 1
  39   20   58 1
  40   21   22 2
  41   21   35 1
  42   22   23 1
  43   23   33 1
  44   24   25 1
  45   24   59 1
  46   24   60 1
  47   25   38 1
  48   25   61 1
  49   25   62 1
  50   26   27 ar
  51   26   28 ar
  52   27   31 ar
  53   27   63 1
  54   28   29 ar
  55   28   32 1
  56   29   30 ar
  57   29   64 1
  58   30   31 ar
  59   30   65 1
  60   31   66 1
  61   32   67 1
  62   32   68 1
  63   32   69 1
  64   33   34 1
  65   33   70 1
  66   33   71 1
  67   34   72 1
  68   34   73 1
  69   34   74 1
  70   35   36 1
  71   35   37 1
  72   35   75 1
  73   36   37 1
  74   36   76 1
  75   36   77 1
  76   37   78 1
  77   37   79 1
  78   38   39 1
  79   38   80 1
  80   38   81 1
  81   39   40 1
  82   39   43 am
  83   40   41 1
  84   40   82 1
  85   40   83 1
  86   41   42 1
  87   41   84 1
  88   41   85 1
  89   42   43 1
  90   42   86 1
  91   42   87 1
  92   43   44 2

#	End of record

