#	Name: ASD05940121
#	Creating user name:	WinNT
#	Creation time:	15. 06. 2019 21:04

#	Modifying user name:	WinNT
#	Modification time:	15. 06. 2019 21:04

#	Program:	/corina/corina34_cracker 3.40 0067  02.08.2006

@<TRIPOS>MOLECULE
ASD05940121
  67   69    0    0    0
SMALL
NO_CHARGES


@<TRIPOS>ATOM
   1 O1            -2.2637    -1.1318    -1.4758 O.3     
   2 C2            -0.9108    -1.5059    -1.2079 C.3     
   3 C3            -0.0170    -0.2656    -1.2698 C.3     
   4 N4            -0.0548     0.2980    -2.6259 N.3     
   5 C5             0.4820     1.6653    -2.6428 C.3     
   6 C6             0.6658    -0.5622    -3.5738 C.3     
   7 C7             0.4019    -0.0908    -4.9807 C.2     
   8 C8             1.1560     0.8512    -5.6880 C.2     
   9 C9             2.3761     1.5717    -5.1750 C.3     
  10 C10           -0.6031    -0.5084    -5.7849 C.2     
  11 N11           -0.4924     0.1505    -6.9573 N.pl3   
  12 N12            0.6196     0.9982    -6.8723 N.2     
  13 C13           -1.6566    -1.5273    -5.4342 C.3     
  14 C14           -0.8208    -2.1304     0.1859 C.3     
  15 O15           -1.5624    -3.3516     0.2095 O.3     
  16 C16           -1.5848    -4.0373     1.3826 C.ar    
  17 C17           -2.2856    -5.2309     1.4765 C.ar    
  18 C18           -2.3069    -5.9260     2.6702 C.ar    
  19 C19           -1.6305    -5.4330     3.7707 C.ar    
  20 C20           -0.9317    -4.2434     3.6798 C.ar    
  21 C21           -0.9023    -3.5477     2.4867 C.ar    
  22 C22           -1.3766     0.0023    -8.1160 C.3     
  23 C23           -1.6554    -6.1933     5.0716 C.3     
  24 C24           -0.7756    -0.9843    -9.0836 C.ar    
  25 C25           -1.1618    -2.3111    -9.0473 C.ar    
  26 C26           -0.6102    -3.2163    -9.9344 C.ar    
  27 C27            0.3280    -2.7953   -10.8586 C.ar    
  28 C28            0.7146    -1.4691   -10.8962 C.ar    
  29 C29            0.1585    -0.5613   -10.0121 C.ar    
  30 Cl30           0.6432     1.1050   -10.0591 Cl      
  31 C31           -0.4830    -7.1755     5.1108 C.3     
  32 C32           -0.5079    -7.9358     6.4117 C.2     
  33 C33           -0.5195    -9.2457     6.4047 C.2     
  34 H34           -2.6250    -0.4883    -0.8509 H       
  35 H35           -0.5798    -2.2298    -1.9526 H       
  36 H36           -0.3762     0.4771    -0.5575 H       
  37 H37            1.0071    -0.5430    -1.0201 H       
  38 H38            1.5429     1.6422    -2.3937 H       
  39 H39            0.3512     2.0947    -3.6361 H       
  40 H40           -0.0498     2.2735    -1.9111 H       
  41 H41            1.7352    -0.5129    -3.3687 H       
  42 H42            0.3220    -1.5908    -3.4648 H       
  43 H43            3.2679     0.9931    -5.4161 H       
  44 H44            2.4423     2.5535    -5.6439 H       
  45 H45            2.3008     1.6896    -4.0940 H       
  46 H46           -2.5389    -1.0186    -5.0457 H       
  47 H47           -1.9265    -2.0926    -6.3262 H       
  48 H48           -1.2665    -2.2075    -4.6772 H       
  49 H49            0.2227    -2.3343     0.4259 H       
  50 H50           -1.2344    -1.4399     0.9208 H       
  51 H51           -2.8144    -5.6162     0.6172 H       
  52 H52           -2.8526    -6.8550     2.7438 H       
  53 H53           -0.4048    -3.8600     4.5411 H       
  54 H54           -0.3563    -2.6185     2.4162 H       
  55 H55           -2.3504    -0.3595    -7.7860 H       
  56 H56           -1.4954     0.9676    -8.6082 H       
  57 H57           -1.5712    -5.4935     5.9031 H       
  58 H58           -2.5930    -6.7433     5.1532 H       
  59 H59           -1.8943    -2.6406    -8.3254 H       
  60 H60           -0.9120    -4.2529    -9.9054 H       
  61 H61            0.7591    -3.5032   -11.5510 H       
  62 H62            1.4477    -1.1404   -11.6179 H       
  63 H63           -0.5672    -7.8752     4.2794 H       
  64 H64            0.4546    -6.6255     5.0293 H       
  65 H65           -0.5161    -7.4007     7.3498 H       
  66 H66           -0.5112    -9.7808     5.4666 H       
  67 H67           -0.5373    -9.7906     7.3370 H       
@<TRIPOS>BOND
   1    1    2 1
   2    1   34 1
   3    2    3 1
   4    2   14 1
   5    2   35 1
   6    3    4 1
   7    3   36 1
   8    3   37 1
   9    4    5 1
  10    4    6 1
  11    5   38 1
  12    5   39 1
  13    5   40 1
  14    6    7 1
  15    6   41 1
  16    6   42 1
  17    7    8 1
  18    7   10 2
  19    8    9 1
  20    8   12 2
  21    9   43 1
  22    9   44 1
  23    9   45 1
  24   10   11 1
  25   10   13 1
  26   11   12 1
  27   11   22 1
  28   13   46 1
  29   13   47 1
  30   13   48 1
  31   14   15 1
  32   14   49 1
  33   14   50 1
  34   15   16 1
  35   16   17 ar
  36   16   21 ar
  37   17   18 ar
  38   17   51 1
  39   18   19 ar
  40   18   52 1
  41   19   20 ar
  42   19   23 1
  43   20   21 ar
  44   20   53 1
  45   21   54 1
  46   22   24 1
  47   22   55 1
  48   22   56 1
  49   23   31 1
  50   23   57 1
  51   23   58 1
  52   24   25 ar
  53   24   29 ar
  54   25   26 ar
  55   25   59 1
  56   26   27 ar
  57   26   60 1
  58   27   28 ar
  59   27   61 1
  60   28   29 ar
  61   28   62 1
  62   29   30 1
  63   31   32 1
  64   31   63 1
  65   31   64 1
  66   32   33 2
  67   32   65 1
  68   33   66 1
  69   33   67 1

#	End of record

