#	Name: ASD00840153
#	Creating user name:	WinNT
#	Creation time:	15. 06. 2019 18:37

#	Modifying user name:	WinNT
#	Modification time:	15. 06. 2019 18:37

#	Program:	/corina/corina34_cracker 3.40 0067  02.08.2006

@<TRIPOS>MOLECULE
ASD00840153
  48   51    0    0    0
SMALL
NO_CHARGES


@<TRIPOS>ATOM
   1 N1             0.4109     1.5865     0.0271 N.am    
   2 C2             0.1483     0.2741    -0.0916 C.2     
   3 C3             1.4800    -0.4429    -0.1560 C.3     
   4 C4             2.5006     0.6675    -0.0554 C.ar    
   5 C5             3.8776     0.6755    -0.0547 C.ar    
   6 C6             4.5615     1.8743     0.0535 C.ar    
   7 C7             3.8554     3.0625     0.1606 C.ar    
   8 C8             2.4741     3.0549     0.1604 C.ar    
   9 C9             1.7812     1.8510     0.0514 C.ar    
  10 O10           -0.9495    -0.2397    -0.1377 O.2     
  11 F11            4.5214     4.2332     0.2662 F       
  12 C12            0.7573    -2.4761     1.1348 C.ar    
  13 C13            1.6224    -1.3973     1.0015 C.ar    
  14 C14            2.6168    -1.2111     1.9455 C.ar    
  15 C15            2.7113    -2.1152     2.9949 C.ar    
  16 C16            1.8172    -3.1647     3.0646 C.ar    
  17 N17            0.8792    -3.3162     2.1488 N.ar    
  18 O18           -0.2254    -2.6664     0.2189 O.3     
  19 C19           -1.0022    -3.8598     0.3394 C.3     
  20 C20           -1.9752    -3.9560    -0.8374 C.3     
  21 Cl21           6.2974     1.8896     0.0554 Cl      
  22 S22           -0.7570     2.7564     0.1261 S.o2    
  23 O23           -0.1942     3.9338    -0.4361 O.2     
  24 O24           -1.9584     2.1653    -0.3501 O.2     
  25 C25           -1.0127     3.0947     1.8363 C.ar    
  26 C26           -0.1967     3.9976     2.4918 C.ar    
  27 C27           -0.3973     4.2630     3.8335 C.ar    
  28 C28           -1.4142     3.6258     4.5196 C.ar    
  29 C29           -2.2308     2.7235     3.8639 C.ar    
  30 C30           -2.0329     2.4614     2.5211 C.ar    
  31 N31            1.6195    -1.1558    -1.4328 N.3     
  32 H32            4.4236    -0.2526    -0.1380 H       
  33 H33            1.9300     3.9841     0.2446 H       
  34 H34            3.3041    -0.3816     1.8676 H       
  35 H35            3.4762    -1.9989     3.7484 H       
  36 H36            1.8866    -3.8710     3.8787 H       
  37 H37           -0.3405    -4.7260     0.3355 H       
  38 H38           -1.5632    -3.8354     1.2736 H       
  39 H39           -2.6257    -4.8199    -0.7014 H       
  40 H40           -2.5794    -3.0500    -0.8843 H       
  41 H41           -1.4136    -4.0665    -1.7651 H       
  42 H42            0.5978     4.4955     1.9557 H       
  43 H43            0.2407     4.9679     4.3458 H       
  44 H44           -1.5705     3.8326     5.5680 H       
  45 H45           -3.0251     2.2255     4.4000 H       
  46 H46           -2.6733     1.7593     2.0079 H       
  47 H47            0.9016    -1.8574    -1.5355 H       
  48 H48            1.6095    -0.5119    -2.2095 H       
@<TRIPOS>BOND
   1    1    2 am
   2    1    9 1
   3    1   22 am
   4    2    3 1
   5    2   10 2
   6    3    4 1
   7    3   13 1
   8    3   31 1
   9    4    5 ar
  10    4    9 ar
  11    5    6 ar
  12    5   32 1
  13    6    7 ar
  14    6   21 1
  15    7    8 ar
  16    7   11 1
  17    8    9 ar
  18    8   33 1
  19   12   13 ar
  20   12   17 ar
  21   12   18 1
  22   13   14 ar
  23   14   15 ar
  24   14   34 1
  25   15   16 ar
  26   15   35 1
  27   16   17 ar
  28   16   36 1
  29   18   19 1
  30   19   20 1
  31   19   37 1
  32   19   38 1
  33   20   39 1
  34   20   40 1
  35   20   41 1
  36   22   23 2
  37   22   24 2
  38   22   25 1
  39   25   26 ar
  40   25   30 ar
  41   26   27 ar
  42   26   42 1
  43   27   28 ar
  44   27   43 1
  45   28   29 ar
  46   28   44 1
  47   29   30 ar
  48   29   45 1
  49   30   46 1
  50   31   47 1
  51   31   48 1

#	End of record

