#	Name: ASD01209077
#	Creating user name:	WinNT
#	Creation time:	15. 06. 2019 19:10

#	Modifying user name:	WinNT
#	Modification time:	15. 06. 2019 19:10

#	Program:	/corina/corina34_cracker 3.40 0067  02.08.2006

@<TRIPOS>MOLECULE
ASD01209077
  49   51    0    0    0
SMALL
NO_CHARGES


@<TRIPOS>ATOM
   1 C1            -0.0294     1.3238    -0.1636 C.ar    
   2 C2            -0.1046    -0.0615    -0.1348 C.ar    
   3 C3            -1.3324    -0.6920     0.0135 C.ar    
   4 C4            -2.4892     0.0593     0.1331 C.ar    
   5 C5            -2.4191     1.4553     0.1047 C.ar    
   6 C6            -1.1795     2.0850    -0.0391 C.ar    
   7 O7             1.1759     1.9347    -0.3087 O.3     
   8 C8             1.8268     1.7871    -1.4899 C.ar    
   9 C9            -3.6456     2.2592     0.2313 C.2     
  10 O10           -4.7193     1.7107     0.3605 O.2     
  11 C11           -3.5669     3.7638     0.2003 C.3     
  12 C12           -4.9060     4.3349    -0.2705 C.3     
  13 C13           -3.2544     4.2871     1.6036 C.3     
  14 O14           -1.3991    -2.0490     0.0410 O.3     
  15 C15           -2.0037    -2.6792    -1.0000 C.ar    
  16 C16           -2.2129    -4.0502    -0.9558 C.ar    
  17 C17           -2.8278    -4.6884    -2.0154 C.ar    
  18 C18           -3.2342    -3.9623    -3.1197 C.ar    
  19 C19           -3.0266    -2.5961    -3.1665 C.ar    
  20 C20           -2.4182    -1.9520    -2.1067 C.ar    
  21 S21           -4.0177    -4.7796    -4.4699 S.o2    
  22 O22           -3.7366    -3.9527    -5.5908 O.2     
  23 O23           -3.5309    -6.1129    -4.4026 O.2     
  24 N24            1.3284     0.9952    -2.4284 N.ar    
  25 C25            1.9648     0.8538    -3.5787 C.ar    
  26 C26            3.1489     1.5302    -3.8031 C.ar    
  27 N27            3.6495     2.3209    -2.8688 N.ar    
  28 C28            3.0160     2.4713    -1.7208 C.ar    
  29 C29           -5.7856    -4.7263    -4.0670 C.3     
  30 H30            0.7952    -0.6513    -0.2284 H       
  31 H31           -3.4440    -0.4322     0.2477 H       
  32 H32           -1.1198     3.1631    -0.0617 H       
  33 H33           -2.7787     4.0723    -0.4864 H       
  34 H34           -5.6942     4.0263     0.4162 H       
  35 H35           -4.8491     5.4232    -0.2929 H       
  36 H36           -5.1286     3.9620    -1.2703 H       
  37 H37           -2.3005     3.8803     1.9391 H       
  38 H38           -3.1975     5.3754     1.5812 H       
  39 H39           -4.0426     3.9786     2.2904 H       
  40 H40           -1.8950    -4.6179    -0.0938 H       
  41 H41           -2.9908    -5.7555    -1.9814 H       
  42 H42           -3.3447    -2.0313    -4.0304 H       
  43 H43           -2.2562    -0.8848    -2.1438 H       
  44 H44            1.5590     0.2085    -4.3438 H       
  45 H45            3.6668     1.4125    -4.7435 H       
  46 H46            3.4250     3.1174    -0.9582 H       
  47 H47           -6.1068    -3.6885    -3.9777 H       
  48 H48           -6.3535    -5.2156    -4.8583 H       
  49 H49           -5.9588    -5.2427    -3.1228 H       
@<TRIPOS>BOND
   1    1    2 ar
   2    1    7 1
   3    1    6 ar
   4    2    3 ar
   5    2   30 1
   6    3    4 ar
   7    3   14 1
   8    4    5 ar
   9    4   31 1
  10    5    6 ar
  11    5    9 1
  12    6   32 1
  13    7    8 1
  14    8   24 ar
  15    8   28 ar
  16    9   10 2
  17    9   11 1
  18   11   12 1
  19   11   13 1
  20   11   33 1
  21   12   34 1
  22   12   35 1
  23   12   36 1
  24   13   37 1
  25   13   38 1
  26   13   39 1
  27   14   15 1
  28   15   16 ar
  29   15   20 ar
  30   16   17 ar
  31   16   40 1
  32   17   18 ar
  33   17   41 1
  34   18   19 ar
  35   18   21 1
  36   19   20 ar
  37   19   42 1
  38   20   43 1
  39   21   22 2
  40   21   23 2
  41   21   29 1
  42   24   25 ar
  43   25   26 ar
  44   25   44 1
  45   26   27 ar
  46   26   45 1
  47   27   28 ar
  48   28   46 1
  49   29   47 1
  50   29   48 1
  51   29   49 1

#	End of record

