#	Name: ASD01883441
#	Creating user name:	WinNT
#	Creation time:	15. 06. 2019 19:46

#	Modifying user name:	WinNT
#	Modification time:	15. 06. 2019 19:46

#	Program:	/corina/corina34_cracker 3.40 0067  02.08.2006

@<TRIPOS>MOLECULE
ASD01883441
  54   56    0    0    0
SMALL
NO_CHARGES


@<TRIPOS>ATOM
   1 N1            -0.1903     1.2382    -0.5885 N.am    
   2 C2            -0.8382     0.8451    -1.7009 C.2     
   3 C3            -2.1194     0.2533    -1.5991 C.2     
   4 C4            -2.6879     0.0897    -0.3246 C.2     
   5 C5            -1.9611     0.5208     0.8006 C.2     
   6 C6            -0.7390     1.0747     0.6434 C.2     
   7 O7            -0.3220     0.9992    -2.7948 O.2     
   8 C8            -2.8231    -0.1703    -2.7721 C.1     
   9 N9            -3.3814    -0.5063    -3.7027 N.1     
  10 N10           -3.9324    -0.4809    -0.1795 N.pl3   
  11 C11           -5.0583     0.3023     0.3475 C.3     
  12 C12           -5.6720    -0.4516     1.5315 C.3     
  13 C13           -6.0442    -1.8691     1.0908 C.3     
  14 C14           -4.7839    -2.6140     0.6448 C.3     
  15 C15           -4.1614    -1.8830    -0.5544 C.3     
  16 C16            1.1359     1.8491    -0.7083 C.3     
  17 C17            0.9878     3.3648    -0.8553 C.3     
  18 C18            2.3728     4.0027    -0.9804 C.3     
  19 C19            3.0354     3.5332    -2.2771 C.3     
  20 C20            2.2325     5.5261    -1.0020 C.3     
  21 O21           -6.6467    -2.5648     2.1840 O.3     
  22 C22           -7.4941    -3.5823     1.8762 C.ar    
  23 C23           -7.6537    -3.9776     0.5563 C.ar    
  24 C24           -8.5153    -5.0117     0.2450 C.ar    
  25 C25           -9.2196    -5.6531     1.2498 C.ar    
  26 C26           -9.0612    -5.2595     2.5677 C.ar    
  27 C27           -8.1956    -4.2298     2.8825 C.ar    
  28 F28          -10.0624    -6.6637     0.9439 F       
  29 H29           -2.3785     0.4054     1.7900 H       
  30 H30           -0.1905     1.4018     1.5143 H       
  31 H31           -4.7013     1.2769     0.6804 H       
  32 H32           -5.8093     0.4326    -0.4316 H       
  33 H33           -4.9486    -0.5018     2.3453 H       
  34 H34           -6.5666     0.0705     1.8710 H       
  35 H35           -6.7487    -1.8181     0.2606 H       
  36 H36           -4.0689    -2.6438     1.4670 H       
  37 H37           -5.0463    -3.6309     0.3532 H       
  38 H38           -4.8406    -1.9329    -1.4055 H       
  39 H39           -3.2116    -2.3502    -0.8143 H       
  40 H40            1.7206     1.6260     0.1841 H       
  41 H41            1.6433     1.4468    -1.5851 H       
  42 H42            0.4031     3.5879    -1.7477 H       
  43 H43            0.4804     3.7670     0.0215 H       
  44 H44            2.9874     3.7065    -0.1303 H       
  45 H45            2.4208     3.8294    -3.1271 H       
  46 H46            4.0221     3.9877    -2.3662 H       
  47 H47            3.1353     2.4479    -2.2617 H       
  48 H48            1.7605     5.8607    -0.0782 H       
  49 H49            3.2192     5.9807    -1.0911 H       
  50 H50            1.6179     5.8224    -1.8520 H       
  51 H51           -7.1050    -3.4770    -0.2277 H       
  52 H52           -8.6397    -5.3197    -0.7826 H       
  53 H53           -9.6114    -5.7605     3.3505 H       
  54 H54           -8.0720    -3.9232     3.9107 H       
@<TRIPOS>BOND
   1    1    2 am
   2    1   16 1
   3    1    6 1
   4    2    3 1
   5    2    7 2
   6    3    4 2
   7    3    8 1
   8    4    5 1
   9    4   10 1
  10    5    6 2
  11    5   29 1
  12    6   30 1
  13    8    9 3
  14   10   11 1
  15   10   15 1
  16   11   12 1
  17   11   31 1
  18   11   32 1
  19   12   13 1
  20   12   33 1
  21   12   34 1
  22   13   14 1
  23   13   21 1
  24   13   35 1
  25   14   15 1
  26   14   36 1
  27   14   37 1
  28   15   38 1
  29   15   39 1
  30   16   17 1
  31   16   40 1
  32   16   41 1
  33   17   18 1
  34   17   42 1
  35   17   43 1
  36   18   19 1
  37   18   20 1
  38   18   44 1
  39   19   45 1
  40   19   46 1
  41   19   47 1
  42   20   48 1
  43   20   49 1
  44   20   50 1
  45   21   22 1
  46   22   23 ar
  47   22   27 ar
  48   23   24 ar
  49   23   51 1
  50   24   25 ar
  51   24   52 1
  52   25   26 ar
  53   25   28 1
  54   26   27 ar
  55   26   53 1
  56   27   54 1

#	End of record

