#	Name: ASD01810674
#	Creating user name:	WinNT
#	Creation time:	15. 06. 2019 19:25

#	Modifying user name:	WinNT
#	Modification time:	15. 06. 2019 19:25

#	Program:	/corina/corina34_cracker 3.40 0067  02.08.2006

@<TRIPOS>MOLECULE
ASD01810674
  69   73    0    0    0
SMALL
NO_CHARGES


@<TRIPOS>ATOM
   1 C1            -0.0716     1.0537    -0.6914 C.ar    
   2 C2             0.0469    -0.3333    -0.7987 C.ar    
   3 C3            -1.0805    -1.1159    -0.9529 C.ar    
   4 C4            -2.3312    -0.5335    -1.0020 C.ar    
   5 C5            -2.4638     0.8530    -0.8959 C.ar    
   6 C6            -1.3309     1.6476    -0.7344 C.ar    
   7 C7            -3.8040     1.4754    -0.9496 C.2     
   8 N8            -4.2209     2.2658     0.0593 N.am    
   9 O9            -4.5297     1.2743    -1.9038 O.2     
  10 C10           -5.5861     2.8088     0.0698 C.3     
  11 C11           -3.3208     2.5957     1.1727 C.3     
  12 C12           -4.0149     2.2376     2.4906 C.3     
  13 C13           -5.3745     2.9373     2.5530 C.3     
  14 C14           -6.2501     2.4478     1.4023 C.3     
  15 C15           -6.0456     2.6145     3.8632 C.ar    
  16 C16           -6.3755     3.6348     4.7376 C.ar    
  17 C17           -6.9903     3.3465     5.9384 C.ar    
  18 C18           -7.2796     2.0214     6.2705 C.ar    
  19 C19           -6.9439     0.9968     5.3833 C.ar    
  20 C20           -6.3342     1.2998     4.1836 C.ar    
  21 C21            1.1372     1.8903    -0.5262 C.2     
  22 N22            2.3508     1.4324    -0.3439 N.2     
  23 C23            3.2156     2.4709    -0.2318 C.ar    
  24 C24            2.4627     3.6542    -0.3567 C.ar    
  25 N25            1.1559     3.2593    -0.5469 N.pl3   
  26 C26            4.5945     2.5515    -0.0329 C.ar    
  27 C27            5.2047     3.7995     0.0390 C.ar    
  28 C28            4.4394     4.9667    -0.0870 C.ar    
  29 C29            3.0908     4.8924    -0.2816 C.ar    
  30 C30            1.4082    -0.9778    -0.7467 C.3     
  31 C31           -3.5558    -1.3953    -1.1710 C.3     
  32 C32           -7.9173     1.7147     7.5154 C.1     
  33 N33           -8.4232     1.4714     8.5030 N.1     
  34 C34            6.6633     3.8947     0.2492 C.2     
  35 O35            7.3152     4.7106    -0.3732 O.2     
  36 N36            7.2718     3.0772     1.1311 N.am    
  37 C37            8.6993     3.2407     1.4173 C.3     
  38 C38            6.5058     2.0249     1.8036 C.3     
  39 H39           -0.9833    -2.1883    -1.0359 H       
  40 H40           -1.4280     2.7200    -0.6514 H       
  41 H41           -5.5490     3.8928    -0.0381 H       
  42 H42           -6.1574     2.3770    -0.7519 H       
  43 H43           -2.3979     2.0234     1.0785 H       
  44 H44           -3.0952     3.6620     1.1566 H       
  45 H45           -4.1582     1.1584     2.5448 H       
  46 H46           -3.3982     2.5656     3.3274 H       
  47 H47           -5.2323     4.0151     2.4740 H       
  48 H48           -7.2271     2.9278     1.4590 H       
  49 H49           -6.3707     1.3667     1.4714 H       
  50 H50           -6.1508     4.6592     4.4797 H       
  51 H51           -7.2470     4.1437     6.6202 H       
  52 H52           -7.1646    -0.0303     5.6341 H       
  53 H53           -6.0740     0.5083     3.4964 H       
  54 H54            0.3905     3.8430    -0.6672 H       
  55 H55            5.1835     1.6515     0.0648 H       
  56 H56            4.9204     5.9320    -0.0297 H       
  57 H57            2.5098     5.7978    -0.3772 H       
  58 H58            1.7057    -1.1149     0.2929 H       
  59 H59            1.3707    -1.9466    -1.2447 H       
  60 H60            2.1326    -0.3380    -1.2506 H       
  61 H61           -3.8864    -1.7521    -0.1956 H       
  62 H62           -4.3511    -0.8100    -1.6325 H       
  63 H63           -3.3157    -2.2472    -1.8073 H       
  64 H64            8.8260     3.9332     2.2494 H       
  65 H65            9.1302     2.2746     1.6797 H       
  66 H66            9.2036     3.6361     0.5355 H       
  67 H67            6.5294     1.1169     1.2012 H       
  68 H68            6.9448     1.8241     2.7809 H       
  69 H69            5.4733     2.3509     1.9292 H       
@<TRIPOS>BOND
   1    1    2 ar
   2    1   21 1
   3    1    6 ar
   4    2    3 ar
   5    2   30 1
   6    3    4 ar
   7    3   39 1
   8    4    5 ar
   9    4   31 1
  10    5    6 ar
  11    5    7 1
  12    6   40 1
  13    7    8 am
  14    7    9 2
  15    8   10 1
  16    8   11 1
  17   10   14 1
  18   10   41 1
  19   10   42 1
  20   11   12 1
  21   11   43 1
  22   11   44 1
  23   12   13 1
  24   12   45 1
  25   12   46 1
  26   13   14 1
  27   13   15 1
  28   13   47 1
  29   14   48 1
  30   14   49 1
  31   15   16 ar
  32   15   20 ar
  33   16   17 ar
  34   16   50 1
  35   17   18 ar
  36   17   51 1
  37   18   19 ar
  38   18   32 1
  39   19   20 ar
  40   19   52 1
  41   20   53 1
  42   21   22 2
  43   21   25 1
  44   22   23 1
  45   23   24 ar
  46   23   26 ar
  47   24   25 1
  48   24   29 ar
  49   25   54 1
  50   26   27 ar
  51   26   55 1
  52   27   28 ar
  53   27   34 1
  54   28   29 ar
  55   28   56 1
  56   29   57 1
  57   30   58 1
  58   30   59 1
  59   30   60 1
  60   31   61 1
  61   31   62 1
  62   31   63 1
  63   32   33 3
  64   34   35 2
  65   34   36 am
  66   36   37 1
  67   36   38 1
  68   37   64 1
  69   37   65 1
  70   37   66 1
  71   38   67 1
  72   38   68 1
  73   38   69 1

#	End of record

