#	Name: ASD01948191
#	Creating user name:	WinNT
#	Creation time:	15. 06. 2019 20:13

#	Modifying user name:	WinNT
#	Modification time:	15. 06. 2019 20:13

#	Program:	/corina/corina34_cracker 3.40 0067  02.08.2006

@<TRIPOS>MOLECULE
ASD01948191
  47   48    0    0    0
SMALL
NO_CHARGES


@<TRIPOS>ATOM
   1 C1            -0.5266     0.5990    -0.9653 C.ar    
   2 C2            -0.1787    -0.2781     0.0513 C.ar    
   3 C3            -0.8118    -0.2019     1.2806 C.ar    
   4 C4            -1.7937     0.7497     1.4972 C.ar    
   5 C5            -2.1445     1.6304     0.4796 C.ar    
   6 C6            -1.5054     1.5570    -0.7503 C.ar    
   7 F7            -2.4112     0.8225     2.6966 F       
   8 O8             0.0964     0.5228    -2.1711 O.3     
   9 C9             1.0991    -0.4843    -2.3209 C.3     
  10 F10           -0.4711    -1.0573     2.2692 F       
  11 N11           -3.1364     2.5918     0.6968 N.pl3   
  12 C12           -4.4526     2.3419     0.2945 C.ar    
  13 C13           -5.4561     3.2619     0.5818 C.ar    
  14 C14           -4.7596     1.1783    -0.3973 C.ar    
  15 C15           -6.0605     0.9342    -0.7939 C.ar    
  16 C16           -7.0574     1.8474    -0.5028 C.ar    
  17 C17           -6.7554     3.0114     0.1820 C.ar    
  18 I18           -9.0278     1.4719    -1.1075 I       
  19 F19           -5.1612     4.3980     1.2508 F       
  20 C20            1.6832    -0.4164    -3.7334 C.3     
  21 N21           -1.8764     2.4934    -1.8351 N.pl3   
  22 O22           -1.2989     3.5603    -1.9426 O.2     
  23 O23           -2.7592     2.1969    -2.6201 O.2     
  24 O24            0.6436    -0.6334    -4.6896 O.3     
  25 C25           -0.0498    -1.1572    -6.9446 C.3     
  26 C26            1.1049    -0.7241    -6.0390 C.3     
  27 O27            2.2655     0.8710    -3.9467 O.3     
  28 C28            3.7687     2.3195    -5.1644 C.3     
  29 C29            3.3232     0.8785    -4.9075 C.3     
  30 H30            0.5865    -1.0215    -0.1161 H       
  31 H31            1.8920    -0.3188    -1.5915 H       
  32 H32            0.6549    -1.4663    -2.1581 H       
  33 H33           -2.9118     3.4319     1.1264 H       
  34 H34           -3.9820     0.4644    -0.6257 H       
  35 H35           -6.2991     0.0290    -1.3325 H       
  36 H36           -7.5362     3.7226     0.4080 H       
  37 H37            2.4480    -1.1846    -3.8476 H       
  38 H38           -0.4200    -2.1300    -6.6211 H       
  39 H39           -0.8539    -0.4239    -6.8840 H       
  40 H40            0.3021    -1.2264    -7.9740 H       
  41 H41            1.4751     0.2487    -6.3626 H       
  42 H42            1.9090    -1.4574    -6.0997 H       
  43 H43            2.9270     2.8974    -5.5461 H       
  44 H44            4.1209     2.7624    -4.2328 H       
  45 H45            4.5755     2.3252    -5.8972 H       
  46 H46            4.1649     0.3005    -4.5257 H       
  47 H47            2.9711     0.4355    -5.8391 H       
@<TRIPOS>BOND
   1    1    2 ar
   2    1    8 1
   3    1    6 ar
   4    2    3 ar
   5    2   30 1
   6    3    4 ar
   7    3   10 1
   8    4    5 ar
   9    4    7 1
  10    5    6 ar
  11    5   11 1
  12    6   21 1
  13    8    9 1
  14    9   20 1
  15    9   31 1
  16    9   32 1
  17   11   12 1
  18   11   33 1
  19   12   13 ar
  20   12   14 ar
  21   13   19 1
  22   13   17 ar
  23   14   15 ar
  24   14   34 1
  25   15   16 ar
  26   15   35 1
  27   16   17 ar
  28   16   18 1
  29   17   36 1
  30   20   24 1
  31   20   27 1
  32   20   37 1
  33   21   22 2
  34   21   23 2
  35   24   26 1
  36   25   26 1
  37   25   38 1
  38   25   39 1
  39   25   40 1
  40   26   41 1
  41   26   42 1
  42   27   29 1
  43   28   29 1
  44   28   43 1
  45   28   44 1
  46   28   45 1
  47   29   46 1
  48   29   47 1

#	End of record

