#	Name: ASD01913047
#	Creating user name:	WinNT
#	Creation time:	15. 06. 2019 20:00

#	Modifying user name:	WinNT
#	Modification time:	15. 06. 2019 20:00

#	Program:	/corina/corina34_cracker 3.40 0067  02.08.2006

@<TRIPOS>MOLECULE
ASD01913047
  43   46    0    0    0
SMALL
NO_CHARGES


@<TRIPOS>ATOM
   1 C1            -0.0342     2.2501    -1.7109 C.ar    
   2 C2            -0.0589     1.0031    -1.1142 C.ar    
   3 C3             1.1357     0.3910    -0.7745 C.ar    
   4 C4             2.3278     1.0651    -1.0513 C.ar    
   5 C5             2.2683     2.3194    -1.6548 C.ar    
   6 N6             1.1076     2.8622    -1.9599 N.ar    
   7 C7             3.6365     0.4549    -0.7077 C.2     
   8 N8             4.8562     0.9984    -0.9207 N.2     
   9 C9             5.7163     0.1212    -0.4665 C.2     
  10 O10            5.0124    -0.9138     0.0025 O.3     
  11 N11            3.8256    -0.7063    -0.1370 N.2     
  12 C12            7.2174     0.2540    -0.4717 C.3     
  13 C13            7.7407     0.1916     0.9652 C.3     
  14 C14            9.2619     0.3593     0.9636 C.3     
  15 C15            9.8969    -0.7853     0.1677 C.3     
  16 N16            9.2926    -0.8226    -1.1710 N.am    
  17 C17            7.8293    -0.8917    -1.2839 C.3     
  18 C18           10.0658    -0.7939    -2.2745 C.2     
  19 C19           11.5295    -0.6400    -2.1470 C.ar    
  20 O20            9.5588    -0.8947    -3.3748 O.2     
  21 C21           12.2479    -1.4654    -1.2794 C.ar    
  22 C22           13.6136    -1.3178    -1.1646 C.ar    
  23 C23           14.2740    -0.3521    -1.9087 C.ar    
  24 C24           13.5655     0.4704    -2.7713 C.ar    
  25 C25           12.2004     0.3275    -2.8980 C.ar    
  26 F26           15.6127    -0.2116    -1.7924 F       
  27 H27           -0.9639     2.7286    -1.9813 H       
  28 H28           -0.9999     0.5119    -0.9149 H       
  29 H29            1.1458    -0.5826    -0.3071 H       
  30 H30            3.1821     2.8517    -1.8740 H       
  31 H31            7.4968     1.2077    -0.9195 H       
  32 H32            7.2878     0.9911     1.5516 H       
  33 H33            7.4820    -0.7718     1.4043 H       
  34 H34            9.5225     1.3118     0.5021 H       
  35 H35            9.6312     0.3382     1.9889 H       
  36 H36           10.9703    -0.6175     0.0795 H       
  37 H37            9.7135    -1.7309     0.6779 H       
  38 H38            7.4773    -1.8460    -0.8921 H       
  39 H39            7.5385    -0.7941    -2.3298 H       
  40 H40           11.7344    -2.2177    -0.6991 H       
  41 H41           14.1701    -1.9554    -0.4937 H       
  42 H42           14.0848     1.2213    -3.3483 H       
  43 H43           11.6495     0.9684    -3.5704 H       
@<TRIPOS>BOND
   1    1    2 ar
   2    1    6 ar
   3    1   27 1
   4    2    3 ar
   5    2   28 1
   6    3    4 ar
   7    3   29 1
   8    4    5 ar
   9    4    7 1
  10    5    6 ar
  11    5   30 1
  12    7    8 1
  13    7   11 2
  14    8    9 2
  15    9   10 1
  16    9   12 1
  17   10   11 1
  18   12   13 1
  19   12   17 1
  20   12   31 1
  21   13   14 1
  22   13   32 1
  23   13   33 1
  24   14   15 1
  25   14   34 1
  26   14   35 1
  27   15   16 1
  28   15   36 1
  29   15   37 1
  30   16   17 1
  31   16   18 am
  32   17   38 1
  33   17   39 1
  34   18   19 1
  35   18   20 2
  36   19   21 ar
  37   19   25 ar
  38   21   22 ar
  39   21   40 1
  40   22   23 ar
  41   22   41 1
  42   23   24 ar
  43   23   26 1
  44   24   25 ar
  45   24   42 1
  46   25   43 1

#	End of record

