#	Name: ASD05060076
#	Creating user name:	WinNT
#	Creation time:	15. 06. 2019 20:56

#	Modifying user name:	WinNT
#	Modification time:	15. 06. 2019 20:56

#	Program:	/corina/corina34_cracker 3.40 0067  02.08.2006

@<TRIPOS>MOLECULE
ASD05060076
  43   45    0    0    0
SMALL
NO_CHARGES


@<TRIPOS>ATOM
   1 C1            -0.0166     1.3743     0.0096 C.ar    
   2 C2             0.0021    -0.0041     0.0020 C.ar    
   3 C3             1.1657     2.0978     0.0022 C.ar    
   4 C4             2.3837     1.4416    -0.0130 C.ar    
   5 C5             2.4142     0.0455    -0.0208 C.ar    
   6 C6             1.2159    -0.6843    -0.0128 C.ar    
   7 C7             3.4972    -0.9548    -0.0361 C.2     
   8 C8             2.8917    -2.1797    -0.0367 C.2     
   9 N9             1.5463    -2.0242    -0.0229 N.pl3   
  10 C10            0.5781    -3.1237    -0.0193 C.3     
  11 C11            0.1391    -3.4110    -1.4320 C.ar    
  12 C12            0.4868    -4.5156    -3.5313 C.ar    
  13 C13           -0.6673    -3.9381    -4.0251 C.ar    
  14 C14           -1.4150    -3.0933    -3.2257 C.ar    
  15 C15           -1.0120    -2.8299    -1.9300 C.ar    
  16 C16            4.9415    -0.6875    -0.0488 C.2     
  17 C17            5.8945    -1.8039    -0.0634 C.2     
  18 O18            5.3484     0.4606    -0.0471 O.2     
  19 C19            7.2242    -1.5578    -0.0750 C.2     
  20 O20            7.6765    -0.2817    -0.0732 O.3     
  21 C21            8.1847    -2.6832    -0.0897 C.2     
  22 O22            9.5095    -2.4380    -0.1013 O.3     
  23 O23            7.7791    -3.8277    -0.0914 O.2     
  24 C24            0.8915    -4.2525    -2.2334 C.ar    
  25 F25            2.0199    -4.8162    -1.7497 F       
  26 O26            3.5425     2.1510    -0.0207 O.3     
  27 C27            3.4311     3.5757    -0.0124 C.3     
  28 H28           -0.9623     1.8959     0.0169 H       
  29 H29           -0.9260    -0.5564     0.0079 H       
  30 H30            1.1360     3.1774     0.0080 H       
  31 H31            3.4078    -3.1283    -0.0464 H       
  32 H32            1.0412    -4.0143     0.4055 H       
  33 H33           -0.2878    -2.8433     0.5804 H       
  34 H34            1.0704    -5.1758    -4.1558 H       
  35 H35           -0.9830    -4.1429    -5.0375 H       
  36 H36           -2.3167    -2.6421    -3.6126 H       
  37 H37           -1.5969    -2.1702    -1.3063 H       
  38 H38            5.5337    -2.8219    -0.0648 H       
  39 H39            8.6405    -0.2061    -0.0821 H       
  40 H40           10.0979    -3.2053    -0.1107 H       
  41 H41            4.4273     4.0181    -0.0199 H       
  42 H42            2.8819     3.9023    -0.8954 H       
  43 H43            2.8992     3.8933     0.8844 H       
@<TRIPOS>BOND
   1    1    2 ar
   2    1    3 ar
   3    1   28 1
   4    2    6 ar
   5    2   29 1
   6    3    4 ar
   7    3   30 1
   8    4    5 ar
   9    4   26 1
  10    5    6 ar
  11    5    7 1
  12    6    9 1
  13    7    8 2
  14    7   16 1
  15    8    9 1
  16    8   31 1
  17    9   10 1
  18   10   11 1
  19   10   32 1
  20   10   33 1
  21   11   24 ar
  22   11   15 ar
  23   12   13 ar
  24   12   24 ar
  25   12   34 1
  26   13   14 ar
  27   13   35 1
  28   14   15 ar
  29   14   36 1
  30   15   37 1
  31   16   17 1
  32   16   18 2
  33   17   19 2
  34   17   38 1
  35   19   20 1
  36   19   21 1
  37   20   39 1
  38   21   22 1
  39   21   23 2
  40   22   40 1
  41   24   25 1
  42   26   27 1
  43   27   41 1
  44   27   42 1
  45   27   43 1

#	End of record

