#	Name: ASD04570028
#	Creating user name:	WinNT
#	Creation time:	15. 06. 2019 20:49

#	Modifying user name:	WinNT
#	Modification time:	15. 06. 2019 20:49

#	Program:	/corina/corina34_cracker 3.40 0067  02.08.2006

@<TRIPOS>MOLECULE
ASD04570028
 344  345    0    0    0
SMALL
NO_CHARGES


@<TRIPOS>ATOM
   1 C1            -0.0187     1.5258     0.0104 C.3     
   2 C2             0.0021    -0.0041     0.0020 C.3     
   3 C3             0.7421    -0.5109     1.2415 C.3     
   4 C4             0.7628    -2.0407     1.2331 C.3     
   5 C5             1.5028    -2.5476     2.4727 C.3     
   6 C6             1.5236    -4.0774     2.4642 C.3     
   7 C7             2.2636    -4.5842     3.7038 C.3     
   8 C8             2.2843    -6.1141     3.6954 C.3     
   9 C9             3.0243    -6.6209     4.9349 C.3     
  10 C10            3.0450    -8.1508     4.9265 C.3     
  11 C11            3.7850    -8.6576     6.1660 C.3     
  12 C12            3.8058   -10.1874     6.1576 C.3     
  13 C13            4.5458   -10.6943     7.3971 C.3     
  14 C14            4.5665   -12.2241     7.3887 C.3     
  15 C15            5.3065   -12.7309     8.6282 C.3     
  16 C16            5.3270   -14.2378     8.6199 C.2     
  17 N17            5.9293   -14.9091     9.6215 N.am    
  18 O18            4.8014   -14.8464     7.7120 O.2     
  19 C19            5.9491   -16.3739     9.6134 C.3     
  20 H20            6.3496   -14.4223    10.3476 H       
  21 C21            7.1274   -16.8647    10.4145 C.2     
  22 C22            4.6547   -16.9049    10.2326 C.3     
  23 C23            3.4684   -16.5114     9.3502 C.3     
  24 S24            1.9337   -17.1409    10.0843 S.3     
  25 C25            0.6635   -16.5834     8.9153 C.3     
  26 N26            7.3484   -18.1877    10.5466 N.am    
  27 O27            7.8768   -16.0692    10.9404 O.2     
  28 C28            8.4939   -18.6648    11.3253 C.3     
  29 C29            8.5143   -20.1716    11.3171 C.2     
  30 N30            9.4859   -20.8360    11.9737 N.am    
  31 O31            7.6566   -20.7865    10.7195 O.2     
  32 C32            9.5057   -22.3009    11.9657 C.3     
  33 C33           10.9139   -22.7854    12.1964 C.2     
  34 O34           11.8125   -21.9859    12.3522 O.2     
  35 N35           11.1748   -24.1073    12.2295 N.am    
  36 C36            8.5961   -22.8294    13.0766 C.3     
  37 C37            7.1684   -22.4484    12.7807 C.ar    
  38 C38            6.3675   -23.2964    12.0383 C.ar    
  39 C39            5.0584   -22.9495    11.7657 C.ar    
  40 C40            4.5475   -21.7490    12.2374 C.ar    
  41 C41            5.3532   -20.8999    12.9821 C.ar    
  42 C42            6.6599   -21.2540    13.2568 C.ar    
  43 O43            3.2602   -21.4052    11.9702 O.3     
  44 C44           12.5438   -24.5783    12.4538 C.3     
  45 C45           12.8241   -24.6343    13.9569 C.3     
  46 C46           12.7049   -25.9545    11.8612 C.2     
  47 O47           11.7684   -26.4892    11.3062 O.2     
  48 N48           13.8896   -26.5911    11.9480 N.am    
  49 C49           12.7830   -23.2188    14.5363 C.3     
  50 C50           13.0591   -23.2739    16.0168 C.2     
  51 O51           13.2681   -24.3403    16.5554 O.2     
  52 N52           13.0737   -22.1382    16.7423 N.am    
  53 C53           14.0463   -27.9290    11.3719 C.3     
  54 C54           14.3867   -27.8074     9.8852 C.3     
  55 C55           15.1580   -28.6556    12.0841 C.2     
  56 C56           13.2053   -27.1820     9.1410 C.3     
  57 C57           13.5457   -27.0605     7.6543 C.3     
  58 C58           12.3643   -26.4350     6.9100 C.3     
  59 N59           12.6911   -26.3183     5.4826 N.3     
  60 O60           15.7602   -28.1096    12.9842 O.2     
  61 N61           15.4830   -29.9121    11.7207 N.am    
  62 C62           16.5638   -30.6184    12.4130 C.3     
  63 C63           16.3457   -32.1280    12.2926 C.3     
  64 C64           17.9053   -30.2448    11.7792 C.3     
  65 C65           15.0661   -32.5191    13.0345 C.3     
  66 C66           14.8479   -34.0287    12.9141 C.3     
  67 C67           13.5683   -34.4199    13.6561 C.3     
  68 N68           13.3589   -35.8693    13.5405 N.3     
  69 H69            1.0039     1.9031     0.0027 H       
  70 H70           -0.5459     1.8868    -0.8726 H       
  71 H71           -0.5289     1.8773     0.9072 H       
  72 H72           -1.0205    -0.3814     0.0098 H       
  73 H73            0.5123    -0.3556    -0.8948 H       
  74 H74            1.7647    -0.1336     1.2338 H       
  75 H75            0.2319    -0.1594     2.1383 H       
  76 H76           -0.2598    -2.4180     1.2409 H       
  77 H77            1.2730    -2.3923     0.3363 H       
  78 H78            2.5254    -2.1703     2.4649 H       
  79 H79            0.9926    -2.1961     3.3695 H       
  80 H80            0.5010    -4.4547     2.4720 H       
  81 H81            2.0337    -4.4289     1.5675 H       
  82 H82            3.2861    -4.2070     3.6960 H       
  83 H83            1.7534    -4.2327     4.6006 H       
  84 H84            1.2617    -6.4914     3.7031 H       
  85 H85            2.7945    -6.4656     2.7986 H       
  86 H86            4.0469    -6.2436     4.9271 H       
  87 H87            2.5141    -6.2694     5.8317 H       
  88 H88            2.0224    -8.5280     4.9342 H       
  89 H89            3.5552    -8.5023     4.0297 H       
  90 H90            4.8076    -8.2803     6.1583 H       
  91 H91            3.2748    -8.3061     7.0628 H       
  92 H92            2.7832   -10.5647     6.1653 H       
  93 H93            4.3160   -10.5389     5.2608 H       
  94 H94            5.5684   -10.3170     7.3894 H       
  95 H95            4.0356   -10.3427     8.2939 H       
  96 H96            3.5439   -12.6014     7.3964 H       
  97 H97            5.0767   -12.5756     6.4919 H       
  98 H98            6.3291   -12.3537     8.6205 H       
  99 H99            4.7963   -12.3794     9.5250 H       
 100 H100           6.0338   -16.7305     8.5869 H       
 101 H101           4.7069   -17.9911    10.3080 H       
 102 H102           4.5255   -16.4775    11.2269 H       
 103 H103           3.4162   -15.4252     9.2748 H       
 104 H104           3.5975   -16.9388     8.3559 H       
 105 H105          -0.3171   -16.9107     9.2609 H       
 106 H106           0.6815   -15.4955     8.8508 H       
 107 H107           0.8628   -17.0091     7.9319 H       
 108 H108           6.7491   -18.8239    10.1260 H       
 109 H109           9.4161   -18.2865    10.8842 H       
 110 H110           8.4092   -18.3082    12.3519 H       
 111 H111          10.1719   -20.3443    12.4517 H       
 112 H112           9.1500   -22.6638    11.0014 H       
 113 H113          10.4562   -24.7467    12.1049 H       
 114 H114           8.6791   -23.9150    13.1286 H       
 115 H115           8.8976   -22.3959    14.0301 H       
 116 H116           6.7658   -24.2307    11.6710 H       
 117 H117           4.4333   -23.6120    11.1854 H       
 118 H118           4.9578   -19.9648    13.3505 H       
 119 H119           7.2874   -20.5935    13.8368 H       
 120 H120           2.6261   -21.7084    12.6344 H       
 121 H121          13.2461   -23.8936    11.9785 H       
 122 H122          12.0676   -25.2488    14.4449 H       
 123 H123          13.8095   -25.0680    14.1268 H       
 124 H124          14.6386   -26.1635    12.3919 H       
 125 H125          13.5395   -22.6044    14.0483 H       
 126 H126          11.7976   -22.7851    14.3664 H       
 127 H127          12.9066   -21.2853    16.3115 H       
 128 H128          13.2515   -22.1737    17.6952 H       
 129 H129          13.1161   -28.4854    11.4873 H       
 130 H130          15.2673   -27.1764     9.7646 H       
 131 H131          14.5904   -28.7974     9.4770 H       
 132 H132          12.3247   -27.8130     9.2616 H       
 133 H133          13.0016   -26.1921     9.5492 H       
 134 H134          14.4263   -26.4295     7.5336 H       
 135 H135          13.7494   -28.0504     7.2461 H       
 136 H136          11.4837   -27.0660     7.0307 H       
 137 H137          12.1606   -25.4451     7.3182 H       
 138 H138          11.9260   -25.9077     4.9688 H       
 139 H139          13.5411   -25.7914     5.3482 H       
 140 H140          15.0014   -30.3487    11.0008 H       
 141 H141          16.5676   -30.3346    13.4654 H       
 142 H142          16.2531   -32.3989    11.2409 H       
 143 H143          17.1944   -32.6537    12.7299 H       
 144 H144          18.0607   -29.1693    11.8650 H       
 145 H145          18.7094   -30.7703    12.2943 H       
 146 H146          17.9015   -30.5285    10.7268 H       
 147 H147          15.1586   -32.2482    14.0862 H       
 148 H148          14.2173   -31.9934    12.5972 H       
 149 H149          14.7554   -34.2997    11.8624 H       
 150 H150          15.6967   -34.5545    13.3515 H       
 151 H151          13.6609   -34.1489    14.7078 H       
 152 H152          12.7196   -33.8941    13.2187 H       
 153 H153          14.1607   -36.3788    13.8804 H       
 154 H154          12.5192   -36.1529    14.0227 H       
 155 C155          49.3233    28.2800    38.5524 C.2     
 156 N156          50.1158    27.3746    37.9452 N.am    
 157 C157          49.8802    25.9428    38.1469 C.3     
 158 C158          48.4941    25.5900    37.6721 C.2     
 159 N159          48.1880    24.3110    37.3774 N.am    
 160 C160          46.8405    23.9680    36.9159 C.3     
 161 C161          46.5527    22.5236    37.2351 C.2     
 162 N162          45.3642    21.9834    36.9004 N.am    
 163 C163          45.0844    20.5792    37.2107 C.3     
 164 C164          44.0431    20.0519    36.2574 C.2     
 165 N165          43.6261    18.7740    36.3544 N.am    
 166 O166          43.5803    20.7776    35.4029 O.2     
 167 C167          42.6139    18.2614    35.4276 C.3     
 168 C168          41.8871    17.1060    36.0664 C.2     
 169 C169          43.2933    17.7880    34.1411 C.3     
 170 N170          40.9058    16.4726    35.3940 N.am    
 171 O171          42.1854    16.7462    37.1855 O.2     
 172 C172          40.1993    15.3494    36.0149 C.3     
 173 C173          39.6362    14.4546    34.9410 C.2     
 174 N174          38.9416    13.3504    35.2796 N.am    
 175 O175          39.8081    14.7282    33.7720 O.2     
 176 C176          38.3007    12.5408    34.2403 C.3     
 177 C177          36.9171    13.0736    33.9704 C.2     
 178 O178          36.5067    14.0348    34.5856 O.2     
 179 N179          36.1357    12.4818    33.0454 N.am    
 180 C180          34.7906    12.9997    32.7830 C.3     
 181 C181          33.8068    12.3960    33.7874 C.3     
 182 C182          34.3727    12.6265    31.3841 C.2     
 183 O183          35.1243    11.9906    30.6759 O.2     
 184 N184          33.1636    12.9994    30.9199 N.am    
 185 C185          32.7573    12.6367    29.5599 C.3     
 186 C186          33.2937    13.6756    28.5731 C.3     
 187 C187          31.2530    12.5966    29.4789 C.2     
 188 O188          30.5860    12.8465    30.4605 O.2     
 189 N189          30.6489    12.2831    28.3156 N.am    
 190 C190          29.1865    12.2442    28.2368 C.3     
 191 C191          28.6528    13.6521    27.9653 C.3     
 192 C192          28.7680    11.3241    27.1191 C.2     
 193 O193          29.6084    10.7567    26.4539 O.2     
 194 N194          27.4597    11.1317    26.8588 N.am    
 195 C195          28.9699    14.5566    29.1578 C.3     
 196 C196          28.4362    15.9645    28.8863 C.3     
 197 N197          28.7399    16.8306    30.0282 N.pl3   
 198 C198          28.3546    18.1502    30.0117 C.2     
 199 C199          39.0588    15.8823    36.8845 C.3     
 200 C200          39.6149    16.8871    37.8954 C.3     
 201 O201          38.0894    16.5272    36.0560 O.3     
 202 C202          38.2050    11.0884    34.7117 C.3     
 203 C203          39.5908    10.5121    34.8477 C.2     
 204 O204          39.7512     9.2176    35.1643 O.3     
 205 O205          40.5575    11.2153    34.6717 O.2     
 206 C206          34.1578    12.8766    35.1969 C.3     
 207 C207          33.1740    12.2729    36.2012 C.3     
 208 C208          33.5250    12.7535    37.6108 C.3     
 209 N209          32.5804    12.1739    38.5751 N.3     
 210 C210          34.8000    13.6297    28.5648 C.ar    
 211 C211          35.4601    12.7920    27.6849 C.ar    
 212 C212          35.5196    14.4297    29.4331 C.ar    
 213 C213          36.9004    14.3898    29.4271 C.ar    
 214 C214          37.5651    13.5462    28.5489 C.ar    
 215 C215          36.8408    12.7481    27.6754 C.ar    
 216 N216          27.6842    18.6571    28.9237 N.pl3   
 217 N217          28.6248    18.9208    31.0277 N.2     
 218 C218          44.5652    20.4677    38.6456 C.3     
 219 O219          43.3065    21.1360    38.7501 O.3     
 220 O220          47.3906    21.8473    37.7932 O.2     
 221 C221          46.7489    24.1842    35.4040 C.3     
 222 C222          46.9176    25.6722    35.0905 C.3     
 223 C223          46.8260    25.8885    33.5786 C.3     
 224 N224          46.9875    27.3133    33.2784 N.pl3   
 225 C225          46.9412    27.7509    31.9759 C.2     
 226 N226          47.0928    29.0880    31.6942 N.pl3   
 227 N227          46.7536    26.8982    31.0082 N.2     
 228 O228          47.6542    26.4570    37.5551 O.2     
 229 C229          50.0101    25.6092    39.6344 C.3     
 230 C230          51.4385    25.8994    40.0994 C.3     
 231 C231          51.5324    25.7005    41.6135 C.3     
 232 C232          52.4069    24.9444    39.3985 C.3     
 233 C233          27.0528    10.2372    25.7723 C.3     
 234 C234          27.0125     8.8182    26.2782 C.2     
 235 C235          25.6638    10.6402    25.2730 C.3     
 236 C236          25.7229    12.0516    24.6853 C.3     
 237 N237          26.6617     7.8164    25.4478 N.am    
 238 O238          27.2958     8.5778    27.4327 O.2     
 239 C239          26.6002    12.0459    23.4318 C.3     
 240 C240          24.3104    12.5102    24.3171 C.3     
 241 O241          38.9234    13.5055    28.5408 O.3     
 242 C242          43.9163    18.9669    33.4389 C.2     
 243 C243          45.2057    19.0749    33.0657 C.2     
 244 N244          45.3429    20.2968    32.4643 N.pl3   
 245 C245          44.1317    20.8934    32.4910 C.2     
 246 N246          43.2823    20.0901    33.0708 N.2     
 247 C247          49.5656    29.7529    38.3449 C.3     
 248 O248          48.4121    27.9094    39.2617 O.2     
 249 H249          50.8421    27.6710    37.3747 H       
 250 H250          50.6149    25.3704    37.5806 H       
 251 H251          48.8598    23.6175    37.4710 H       
 252 H252          46.1115    24.6035    37.4187 H       
 253 H253          44.6940    22.5243    36.4540 H       
 254 H254          45.9991    19.9953    37.1088 H       
 255 H255          43.9963    18.1936    37.0378 H       
 256 H256          41.9023    19.0530    35.1927 H       
 257 H257          44.0671    17.0602    34.3855 H       
 258 H258          42.5530    17.3257    33.4882 H       
 259 H259          40.6672    16.7604    34.4989 H       
 260 H260          40.8934    14.7813    36.6342 H       
 261 H261          38.8660    13.0917    36.2114 H       
 262 H262          38.8928    12.5879    33.3263 H       
 263 H263          36.4639    11.7130    32.5533 H       
 264 H264          34.7930    14.0850    32.8842 H       
 265 H265          32.7937    12.7111    33.5378 H       
 266 H266          33.8691    11.3085    33.7482 H       
 267 H267          32.5624    13.5081    31.4863 H       
 268 H268          33.1608    11.6555    29.3097 H       
 269 H269          32.9180    13.4556    27.5739 H       
 270 H270          32.9621    14.6690    28.8754 H       
 271 H271          31.1824    12.0832    27.5305 H       
 272 H272          28.7815    11.8777    29.1801 H       
 273 H273          29.1258    14.0534    27.0690 H       
 274 H274          27.5735    13.6095    27.8185 H       
 275 H275          26.7874    11.5855    27.3909 H       
 276 H276          28.4969    14.1553    30.0541 H       
 277 H277          30.0492    14.5992    29.3046 H       
 278 H278          28.9092    16.3658    27.9900 H       
 279 H279          27.3569    15.9219    28.7395 H       
 280 H280          29.2128    16.4730    30.7959 H       
 281 H281          38.5895    15.0543    37.4158 H       
 282 H282          40.0842    17.7152    37.3642 H       
 283 H283          38.8024    17.2668    38.5150 H       
 284 H284          40.3544    16.3953    38.5274 H       
 285 H285          38.4378    17.2755    35.5524 H       
 286 H286          37.7002    11.0523    35.6771 H       
 287 H287          37.6394    10.5067    33.9839 H       
 288 H288          40.6591     8.8935    35.2402 H       
 289 H289          35.1710    12.5614    35.4465 H       
 290 H290          34.0955    13.9641    35.2360 H       
 291 H291          32.1608    12.5880    35.9517 H       
 292 H292          33.2363    11.1854    36.1621 H       
 293 H293          34.5381    12.4383    37.8603 H       
 294 H294          33.4627    13.8410    37.6499 H       
 295 H295          32.7912    12.4764    39.5143 H       
 296 H296          31.6282    12.3983    38.3281 H       
 297 H297          34.8958    12.1711    27.0049 H       
 298 H298          35.0017    15.0865    30.1163 H       
 299 H299          37.4621    15.0151    30.1053 H       
 300 H300          37.3559    12.0906    26.9907 H       
 301 H301          27.4831    18.0837    28.1676 H       
 302 H302          27.4123    19.5882    28.9121 H       
 303 H303          28.3529    19.8518    31.0161 H       
 304 H304          44.4413    19.4166    38.9065 H       
 305 H305          45.2795    20.9295    39.3273 H       
 306 H306          42.9173    21.1056    39.6348 H       
 307 H307          47.5360    23.6168    34.9074 H       
 308 H308          45.7763    23.8457    35.0469 H       
 309 H309          46.1305    26.2397    35.5871 H       
 310 H310          47.8902    26.0108    35.4477 H       
 311 H311          47.6130    25.3210    33.0821 H       
 312 H312          45.8534    25.5499    33.2215 H       
 313 H313          47.1271    27.9479    33.9986 H       
 314 H314          47.2324    29.7226    32.4144 H       
 315 H315          47.0602    29.3968    30.7752 H       
 316 H316          46.7210    27.2069    30.0892 H       
 317 H317          49.3109    26.2194    40.2060 H       
 318 H318          49.7841    24.5544    39.7913 H       
 319 H319          51.6994    26.9282    39.8512 H       
 320 H320          51.3565    24.6520    41.8538 H       
 321 H321          52.5253    25.9904    41.9572 H       
 322 H322          50.7822    26.3174    42.1081 H       
 323 H323          52.3401    25.0861    38.3198 H       
 324 H324          53.4246    25.1512    39.7298 H       
 325 H325          52.1460    23.9156    39.6467 H       
 326 H326          27.7687    10.3109    24.9537 H       
 327 H327          25.3367     9.9400    24.5044 H       
 328 H328          24.9594    10.6221    26.1046 H       
 329 H329          26.1461    12.7345    25.4219 H       
 330 H330          26.4351     8.0087    24.5244 H       
 331 H331          26.6358     6.9031    25.7734 H       
 332 H332          26.1769    11.3630    22.6952 H       
 333 H333          26.6422    13.0514    23.0132 H       
 334 H334          27.6064    11.7191    23.6942 H       
 335 H335          23.7094    12.5981    25.2222 H       
 336 H336          24.3610    13.4785    23.8192 H       
 337 H337          23.8545    11.7808    23.6476 H       
 338 H338          39.3009    12.8509    29.1442 H       
 339 H339          45.9823    18.3389    33.2129 H       
 340 H340          46.1580    20.6653    32.0891 H       
 341 H341          43.9030    21.8716    32.0944 H       
 342 H342          50.4172    29.8907    37.6786 H       
 343 H343          48.6800    30.2079    37.9014 H       
 344 H344          49.7750    30.2254    39.3046 H       
@<TRIPOS>BOND
   1    1    2 1
   2    1   69 1
   3    1   70 1
   4    1   71 1
   5    2    3 1
   6    2   72 1
   7    2   73 1
   8    3    4 1
   9    3   74 1
  10    3   75 1
  11    4    5 1
  12    4   76 1
  13    4   77 1
  14    5    6 1
  15    5   78 1
  16    5   79 1
  17    6    7 1
  18    6   80 1
  19    6   81 1
  20    7    8 1
  21    7   82 1
  22    7   83 1
  23    8    9 1
  24    8   84 1
  25    8   85 1
  26    9   10 1
  27    9   86 1
  28    9   87 1
  29   10   11 1
  30   10   88 1
  31   10   89 1
  32   11   12 1
  33   11   90 1
  34   11   91 1
  35   12   13 1
  36   12   92 1
  37   12   93 1
  38   13   14 1
  39   13   94 1
  40   13   95 1
  41   14   15 1
  42   14   96 1
  43   14   97 1
  44   15   16 1
  45   15   98 1
  46   15   99 1
  47   16   17 am
  48   16   18 2
  49   17   19 1
  50   17   20 1
  51   19   21 1
  52   19   22 1
  53   19  100 1
  54   21   26 am
  55   21   27 2
  56   22   23 1
  57   22  101 1
  58   22  102 1
  59   23   24 1
  60   23  103 1
  61   23  104 1
  62   24   25 1
  63   25  105 1
  64   25  106 1
  65   25  107 1
  66   26   28 1
  67   26  108 1
  68   28   29 1
  69   28  109 1
  70   28  110 1
  71   29   30 am
  72   29   31 2
  73   30   32 1
  74   30  111 1
  75   32   33 1
  76   32   36 1
  77   32  112 1
  78   33   34 2
  79   33   35 am
  80   35   44 1
  81   35  113 1
  82   36   37 1
  83   36  114 1
  84   36  115 1
  85   37   38 ar
  86   37   42 ar
  87   38   39 ar
  88   38  116 1
  89   39   40 ar
  90   39  117 1
  91   40   41 ar
  92   40   43 1
  93   41   42 ar
  94   41  118 1
  95   42  119 1
  96   43  120 1
  97   44   45 1
  98   44   46 1
  99   44  121 1
 100   45   49 1
 101   45  122 1
 102   45  123 1
 103   46   47 2
 104   46   48 am
 105   48   53 1
 106   48  124 1
 107   49   50 1
 108   49  125 1
 109   49  126 1
 110   50   51 2
 111   50   52 am
 112   52  127 1
 113   52  128 1
 114   53   54 1
 115   53   55 1
 116   53  129 1
 117   54   56 1
 118   54  130 1
 119   54  131 1
 120   55   60 2
 121   55   61 am
 122   56   57 1
 123   56  132 1
 124   56  133 1
 125   57   58 1
 126   57  134 1
 127   57  135 1
 128   58   59 1
 129   58  136 1
 130   58  137 1
 131   59  138 1
 132   59  139 1
 133   61   62 1
 134   61  140 1
 135   62   63 1
 136   62   64 1
 137   62  141 1
 138   63   65 1
 139   63  142 1
 140   63  143 1
 141   64  144 1
 142   64  145 1
 143   64  146 1
 144   65   66 1
 145   65  147 1
 146   65  148 1
 147   66   67 1
 148   66  149 1
 149   66  150 1
 150   67   68 1
 151   67  151 1
 152   67  152 1
 153   68  153 1
 154   68  154 1
 155  155  156 am
 156  155  247 1
 157  155  248 2
 158  156  157 1
 159  156  249 1
 160  157  158 1
 161  157  229 1
 162  157  250 1
 163  158  159 am
 164  158  228 2
 165  159  160 1
 166  159  251 1
 167  160  161 1
 168  160  221 1
 169  160  252 1
 170  161  162 am
 171  161  220 2
 172  162  163 1
 173  162  253 1
 174  163  164 1
 175  163  218 1
 176  163  254 1
 177  164  165 am
 178  164  166 2
 179  165  167 1
 180  165  255 1
 181  167  168 1
 182  167  169 1
 183  167  256 1
 184  168  170 am
 185  168  171 2
 186  169  242 1
 187  169  257 1
 188  169  258 1
 189  170  172 1
 190  170  259 1
 191  172  173 1
 192  172  199 1
 193  172  260 1
 194  173  174 am
 195  173  175 2
 196  174  176 1
 197  174  261 1
 198  176  177 1
 199  176  202 1
 200  176  262 1
 201  177  178 2
 202  177  179 am
 203  179  180 1
 204  179  263 1
 205  180  181 1
 206  180  182 1
 207  180  264 1
 208  181  206 1
 209  181  265 1
 210  181  266 1
 211  182  183 2
 212  182  184 am
 213  184  185 1
 214  184  267 1
 215  185  186 1
 216  185  187 1
 217  185  268 1
 218  186  210 1
 219  186  269 1
 220  186  270 1
 221  187  188 2
 222  187  189 am
 223  189  190 1
 224  189  271 1
 225  190  191 1
 226  190  192 1
 227  190  272 1
 228  191  195 1
 229  191  273 1
 230  191  274 1
 231  192  193 2
 232  192  194 am
 233  194  233 1
 234  194  275 1
 235  195  196 1
 236  195  276 1
 237  195  277 1
 238  196  197 1
 239  196  278 1
 240  196  279 1
 241  197  198 1
 242  197  280 1
 243  198  216 1
 244  198  217 2
 245  199  200 1
 246  199  201 1
 247  199  281 1
 248  200  282 1
 249  200  283 1
 250  200  284 1
 251  201  285 1
 252  202  203 1
 253  202  286 1
 254  202  287 1
 255  203  204 1
 256  203  205 2
 257  204  288 1
 258  206  207 1
 259  206  289 1
 260  206  290 1
 261  207  208 1
 262  207  291 1
 263  207  292 1
 264  208  209 1
 265  208  293 1
 266  208  294 1
 267  209  295 1
 268  209  296 1
 269  210  211 ar
 270  210  212 ar
 271  211  215 ar
 272  211  297 1
 273  212  213 ar
 274  212  298 1
 275  213  214 ar
 276  213  299 1
 277  214  215 ar
 278  214  241 1
 279  215  300 1
 280  216  301 1
 281  216  302 1
 282  217  303 1
 283  218  219 1
 284  218  304 1
 285  218  305 1
 286  219  306 1
 287  221  222 1
 288  221  307 1
 289  221  308 1
 290  222  223 1
 291  222  309 1
 292  222  310 1
 293  223  224 1
 294  223  311 1
 295  223  312 1
 296  224  225 1
 297  224  313 1
 298  225  226 1
 299  225  227 2
 300  226  314 1
 301  226  315 1
 302  227  316 1
 303  229  230 1
 304  229  317 1
 305  229  318 1
 306  230  231 1
 307  230  232 1
 308  230  319 1
 309  231  320 1
 310  231  321 1
 311  231  322 1
 312  232  323 1
 313  232  324 1
 314  232  325 1
 315  233  234 1
 316  233  235 1
 317  233  326 1
 318  234  237 am
 319  234  238 2
 320  235  236 1
 321  235  327 1
 322  235  328 1
 323  236  239 1
 324  236  240 1
 325  236  329 1
 326  237  330 1
 327  237  331 1
 328  239  332 1
 329  239  333 1
 330  239  334 1
 331  240  335 1
 332  240  336 1
 333  240  337 1
 334  241  338 1
 335  242  243 2
 336  242  246 1
 337  243  244 1
 338  243  339 1
 339  244  245 1
 340  244  340 1
 341  245  246 2
 342  245  341 1
 343  247  342 1
 344  247  343 1
 345  247  344 1

#	End of record

