#	Name: ASD06170344
#	Creating user name:	WinNT
#	Creation time:	15. 06. 2019 21:05

#	Modifying user name:	WinNT
#	Modification time:	15. 06. 2019 21:05

#	Program:	/corina/corina34_cracker 3.40 0067  02.08.2006

@<TRIPOS>MOLECULE
ASD06170344
  68   72    0    0    0
SMALL
NO_CHARGES


@<TRIPOS>ATOM
   1 N1            -0.0724     1.3727     0.0352 N.am    
   2 N2            -0.1056     0.0180     0.3789 N.pl3   
   3 C3             1.1363    -0.4999     0.3236 C.2     
   4 C4             2.0113     0.4989    -0.0565 C.2     
   5 C5             1.2033     1.7149    -0.2403 C.2     
   6 C6             3.4621     0.3722    -0.2407 C.2     
   7 O7             4.0079    -0.6993    -0.0540 O.2     
   8 N8             4.1896     1.4427    -0.6167 N.am    
   9 C9            -1.3124    -0.7276     0.7450 C.3     
  10 C10            5.5879     1.3692    -0.6299 C.ar    
  11 C11            6.2172     0.1476    -0.8286 C.ar    
  12 C12            8.3543     1.2268    -0.6565 C.ar    
  13 C13            7.7246     2.4474    -0.4638 C.ar    
  14 C14            6.3455     2.5192    -0.4499 C.ar    
  15 O15            9.7124     1.1571    -0.6699 O.3     
  16 N16           11.5638     0.5781    -4.3095 N.ar    
  17 C17           12.3338     0.7815    -3.2339 C.ar    
  18 C18           11.7378     0.9846    -1.9654 C.ar    
  19 C19           10.3281     0.9679    -1.8626 C.ar    
  20 C20            9.5958     0.7519    -3.0170 C.ar    
  21 C21           10.2541     0.5607    -4.2249 C.ar    
  22 O22            1.6065     2.8132    -0.5750 O.2     
  23 C23           -1.1774     2.2285    -0.0198 C.ar    
  24 C24           12.5468     1.1966    -0.8395 C.ar    
  25 C25           13.9013     1.2062    -0.9709 C.ar    
  26 C26           14.5003     1.0068    -2.2181 C.ar    
  27 C27           13.7336     0.7966    -3.3418 C.ar    
  28 C28           -2.1221     2.2115     0.9980 C.ar    
  29 C29           -3.2118     3.0581     0.9410 C.ar    
  30 C30           -3.3630     3.9217    -0.1284 C.ar    
  31 C31           -2.4244     3.9408    -1.1437 C.ar    
  32 C32           -1.3292     3.1011    -1.0896 C.ar    
  33 O33           15.8545     1.0214    -2.3224 O.3     
  34 C34           16.5954     1.2452    -1.1211 C.3     
  35 C35           -1.9416    -1.3290    -0.5133 C.3     
  36 C36           -3.1290    -2.2096    -0.1187 C.3     
  37 C37            1.5086    -1.9285     0.6259 C.3     
  38 N38           -0.9453    -2.1397    -1.2178 N.2     
  39 C39            7.5979     0.0762    -0.8419 C.ar    
  40 F40            8.2113    -1.1119    -1.0347 F       
  41 N41           -1.1953    -2.5972    -2.2136 N.1     
  42 N42           -1.4453    -3.0547    -3.2094 N.pl3   
  43 H43            3.7446     2.2640    -0.8782 H       
  44 H44           -1.0493    -1.5272     1.4374 H       
  45 H45           -2.0250    -0.0543     1.2213 H       
  46 H46            5.6285    -0.7464    -0.9723 H       
  47 H47            8.3130     3.3422    -0.3241 H       
  48 H48            5.8559     3.4700    -0.2995 H       
  49 H49            8.5167     0.7318    -2.9786 H       
  50 H50            9.6724     0.3934    -5.1193 H       
  51 H51           12.0958     1.3522     0.1294 H       
  52 H52           14.5207     1.3701    -0.1015 H       
  53 H53           14.2061     0.6433    -4.3008 H       
  54 H54           -2.0050     1.5367     1.8331 H       
  55 H55           -3.9468     3.0453     1.7322 H       
  56 H56           -4.2162     4.5825    -0.1709 H       
  57 H57           -2.5458     4.6159    -1.9779 H       
  58 H58           -0.5963     3.1167    -1.8827 H       
  59 H59           16.3656     0.4599    -0.4010 H       
  60 H60           17.6622     1.2325    -1.3445 H       
  61 H61           16.3235     2.2138    -0.7016 H       
  62 H62           -2.2852    -0.5270    -1.1666 H       
  63 H63           -2.7853    -3.0116     0.5345 H       
  64 H64           -3.8703    -1.6064     0.4054 H       
  65 H65           -3.5773    -2.6380    -1.0152 H       
  66 H66            1.4514    -2.5201    -0.2879 H       
  67 H67            2.5248    -1.9639     1.0185 H       
  68 H68            0.8190    -2.3350     1.3656 H       
@<TRIPOS>BOND
   1    1    2 1
   2    1    5 am
   3    1   23 1
   4    2    3 1
   5    2    9 1
   6    3    4 2
   7    3   37 1
   8    4    5 1
   9    4    6 1
  10    5   22 2
  11    6    7 2
  12    6    8 am
  13    8   10 1
  14    8   43 1
  15    9   35 1
  16    9   44 1
  17    9   45 1
  18   10   11 ar
  19   10   14 ar
  20   11   39 ar
  21   11   46 1
  22   12   13 ar
  23   12   15 1
  24   12   39 ar
  25   13   14 ar
  26   13   47 1
  27   14   48 1
  28   15   19 1
  29   16   17 ar
  30   16   21 ar
  31   17   18 ar
  32   17   27 ar
  33   18   19 ar
  34   18   24 ar
  35   19   20 ar
  36   20   21 ar
  37   20   49 1
  38   21   50 1
  39   23   28 ar
  40   23   32 ar
  41   24   25 ar
  42   24   51 1
  43   25   26 ar
  44   25   52 1
  45   26   27 ar
  46   26   33 1
  47   27   53 1
  48   28   29 ar
  49   28   54 1
  50   29   30 ar
  51   29   55 1
  52   30   31 ar
  53   30   56 1
  54   31   32 ar
  55   31   57 1
  56   32   58 1
  57   33   34 1
  58   34   59 1
  59   34   60 1
  60   34   61 1
  61   35   36 1
  62   35   38 1
  63   35   62 1
  64   36   63 1
  65   36   64 1
  66   36   65 1
  67   37   66 1
  68   37   67 1
  69   37   68 1
  70   38   41 2
  71   39   40 1
  72   41   42 2

#	End of record

