#	Name: ASD05940053
#	Creating user name:	WinNT
#	Creation time:	15. 06. 2019 21:04

#	Modifying user name:	WinNT
#	Modification time:	15. 06. 2019 21:04

#	Program:	/corina/corina34_cracker 3.40 0067  02.08.2006

@<TRIPOS>MOLECULE
ASD05940053
  60   63    0    0    0
SMALL
NO_CHARGES


@<TRIPOS>ATOM
   1 N1            -0.0159     1.3182     0.0093 N.ar    
   2 C2             0.0021    -0.0041     0.0020 C.ar    
   3 N3             1.1319    -0.6930    -0.0105 N.ar    
   4 C4             2.3066    -0.0681    -0.0163 C.ar    
   5 C5             2.3274     1.3257    -0.0126 C.ar    
   6 C6             1.1197     2.0168     0.0022 C.ar    
   7 N7             3.5574     2.0049    -0.0281 N.am    
   8 N8             1.0977     3.4049     0.0098 N.pl3   
   9 O9            -1.1750    -0.6756     0.0081 O.3     
  10 C10           -2.3694     0.1089     0.0221 C.3     
  11 C11           -3.5875    -0.8168     0.0271 C.3     
  12 C12           -4.8663     0.0231     0.0422 C.3     
  13 C13           -6.0845    -0.9026     0.0472 C.3     
  14 N14            3.4912    -0.7844    -0.0204 N.3     
  15 C15            4.5325    -0.1235    -0.8134 C.3     
  16 C16            4.6626     1.3204    -0.4025 C.2     
  17 O17            5.7474     1.8633    -0.4070 O.2     
  18 C18            3.2721    -2.1615    -0.4823 C.3     
  19 C19            4.6021    -2.8332    -0.7082 C.ar    
  20 C20            5.2140    -3.5224     0.3218 C.ar    
  21 C21            6.4335    -4.1342     0.1106 C.ar    
  22 C22            7.0492    -4.0612    -1.1301 C.ar    
  23 C23            6.4361    -3.3773    -2.1583 C.ar    
  24 C24            5.2098    -2.7664    -1.9463 C.ar    
  25 C25            8.3844    -4.7350    -1.3088 C.3     
  26 N26            8.6813    -4.9163    -2.7333 N.3     
  27 C27            8.5448    -3.6382    -3.4495 C.3     
  28 C28            7.0602    -3.2809    -3.5268 C.3     
  29 C29           10.0221    -5.4856    -2.9232 C.3     
  30 C30           10.0568    -6.9079    -2.3602 C.3     
  31 H31            3.6127     2.9401     0.2234 H       
  32 H32            1.9299     3.9032     0.0049 H       
  33 H33            0.2501     3.8765     0.0201 H       
  34 H34           -2.3836     0.7330     0.9156 H       
  35 H35           -2.3983     0.7426    -0.8643 H       
  36 H36           -3.5733    -1.4409    -0.8664 H       
  37 H37           -3.5587    -1.4505     0.9135 H       
  38 H38           -4.8806     0.6473     0.9357 H       
  39 H39           -4.8952     0.6569    -0.8442 H       
  40 H40           -6.0702    -1.5267    -0.8463 H       
  41 H41           -6.0556    -1.5363     0.9336 H       
  42 H42           -6.9955    -0.3042     0.0579 H       
  43 H43            5.4839    -0.6312    -0.6548 H       
  44 H44            4.2696    -0.1760    -1.8699 H       
  45 H45            2.7102    -2.7126     0.2718 H       
  46 H46            2.7095    -2.1464    -1.4158 H       
  47 H47            4.7393    -3.5820     1.2900 H       
  48 H48            6.9110    -4.6723     0.9161 H       
  49 H49            4.7313    -2.2284    -2.7512 H       
  50 H50            9.1614    -4.1200    -0.8548 H       
  51 H51            8.3646    -5.7084    -0.8187 H       
  52 H52            9.0817    -2.8574    -2.9108 H       
  53 H53            8.9504    -3.7376    -4.4564 H       
  54 H54            6.5566    -3.9713    -4.2036 H       
  55 H55            6.9518    -2.2638    -3.9032 H       
  56 H56           10.2592    -5.5100    -3.9868 H       
  57 H57           10.7553    -4.8704    -2.4015 H       
  58 H58           11.0516    -7.3303    -2.5011 H       
  59 H59            9.8197    -6.8835    -1.2966 H       
  60 H60            9.3236    -7.5231    -2.8818 H       
@<TRIPOS>BOND
   1    1    2 ar
   2    1    6 ar
   3    2    3 ar
   4    2    9 1
   5    3    4 ar
   6    4    5 ar
   7    4   14 1
   8    5    6 ar
   9    5    7 1
  10    6    8 1
  11    7   16 am
  12    7   31 1
  13    8   32 1
  14    8   33 1
  15    9   10 1
  16   10   11 1
  17   10   34 1
  18   10   35 1
  19   11   12 1
  20   11   36 1
  21   11   37 1
  22   12   13 1
  23   12   38 1
  24   12   39 1
  25   13   40 1
  26   13   41 1
  27   13   42 1
  28   14   15 1
  29   14   18 1
  30   15   16 1
  31   15   43 1
  32   15   44 1
  33   16   17 2
  34   18   19 1
  35   18   45 1
  36   18   46 1
  37   19   20 ar
  38   19   24 ar
  39   20   21 ar
  40   20   47 1
  41   21   22 ar
  42   21   48 1
  43   22   23 ar
  44   22   25 1
  45   23   24 ar
  46   23   28 1
  47   24   49 1
  48   25   26 1
  49   25   50 1
  50   25   51 1
  51   26   27 1
  52   26   29 1
  53   27   28 1
  54   27   52 1
  55   27   53 1
  56   28   54 1
  57   28   55 1
  58   29   30 1
  59   29   56 1
  60   29   57 1
  61   30   58 1
  62   30   59 1
  63   30   60 1

#	End of record

