#	Name: ASD09740244
#	Creating user name:	WinNT
#	Creation time:	15. 06. 2019 21:23

#	Modifying user name:	WinNT
#	Modification time:	15. 06. 2019 21:23

#	Program:	/corina/corina34_cracker 3.40 0067  02.08.2006

@<TRIPOS>MOLECULE
ASD09740244
  45   48    0    0    0
SMALL
NO_CHARGES


@<TRIPOS>ATOM
   1 N1            -0.0144     1.2085     0.0087 N.2     
   2 O2             0.0021    -0.0041     0.0020 O.3     
   3 C3             1.2073     1.6801    -0.0004 C.2     
   4 N4             2.0468     0.6230    -0.0141 N.2     
   5 C5             1.2700    -0.4445    -0.0125 C.2     
   6 C6             1.7117    -1.8538    -0.0238 C.ar    
   7 C7             1.5963     3.1101     0.0031 C.ar    
   8 C8             0.7673    -2.8834    -0.0204 C.ar    
   9 C9             0.6108     4.1137     0.0179 C.ar    
  10 C10            0.9903     5.4672     0.0217 C.ar    
  11 C11            2.3411     5.7999     0.0102 C.ar    
  12 C12            3.2991     4.8086    -0.0052 C.ar    
  13 C13            2.9371     3.4715    -0.0024 C.ar    
  14 C14            1.1854    -4.2001    -0.0310 C.ar    
  15 O15            0.2688    -5.2047    -0.0281 O.3     
  16 C16           -1.1090    -4.8258    -0.0139 C.3     
  17 C17            3.0737    -2.1600    -0.0438 C.ar    
  18 C18           -1.9833    -6.0814    -0.0128 C.3     
  19 N19           -0.1675     6.2133     0.0368 N.pl3   
  20 C20           -1.2544     5.3838     0.0426 C.2     
  21 C21           -0.8511     4.1018     0.0318 C.2     
  22 C22            3.4845    -3.4763    -0.0543 C.ar    
  23 C23            2.5469    -4.4989    -0.0451 C.ar    
  24 O24            2.9566    -5.7942    -0.0556 O.3     
  25 C25            4.3661    -6.0288    -0.0760 C.3     
  26 C26            4.6323    -7.5354    -0.0852 C.3     
  27 H27           -0.2872    -2.6505    -0.0091 H       
  28 H28            2.6400     6.8377     0.0130 H       
  29 H29            4.3450     5.0778    -0.0148 H       
  30 H30            3.7003     2.7074    -0.0146 H       
  31 H31           -1.3151    -4.2387     0.8810 H       
  32 H32           -1.3309    -4.2294    -0.8989 H       
  33 H33            3.8056    -1.3658    -0.0513 H       
  34 H34           -3.0342    -5.7923    -0.0020 H       
  35 H35           -1.7771    -6.6685    -0.9077 H       
  36 H36           -1.7614    -6.6778     0.8722 H       
  37 H37           -0.2060     7.1825     0.0427 H       
  38 H38           -2.2838     5.7102     0.0548 H       
  39 H39           -1.4865     3.2285     0.0328 H       
  40 H40            4.5384    -3.7117    -0.0701 H       
  41 H41            4.7965    -5.5782    -0.9703 H       
  42 H42            4.8211    -5.5848     0.8095 H       
  43 H43            4.2020    -7.9859     0.8092 H       
  44 H44            4.1773    -7.9793    -0.9706 H       
  45 H45            5.7075    -7.7143    -0.1008 H       
@<TRIPOS>BOND
   1    1    2 1
   2    1    3 2
   3    2    5 1
   4    3    4 1
   5    3    7 1
   6    4    5 2
   7    5    6 1
   8    6    8 ar
   9    6   17 ar
  10    7    9 ar
  11    7   13 ar
  12    8   14 ar
  13    8   27 1
  14    9   10 ar
  15    9   21 1
  16   10   11 ar
  17   10   19 1
  18   11   12 ar
  19   11   28 1
  20   12   13 ar
  21   12   29 1
  22   13   30 1
  23   14   15 1
  24   14   23 ar
  25   15   16 1
  26   16   18 1
  27   16   31 1
  28   16   32 1
  29   17   22 ar
  30   17   33 1
  31   18   34 1
  32   18   35 1
  33   18   36 1
  34   19   20 1
  35   19   37 1
  36   20   21 2
  37   20   38 1
  38   21   39 1
  39   22   23 ar
  40   22   40 1
  41   23   24 1
  42   24   25 1
  43   25   26 1
  44   25   41 1
  45   25   42 1
  46   26   43 1
  47   26   44 1
  48   26   45 1

#	End of record

