#	Name: ASD01148241
#	Creating user name:	WinNT
#	Creation time:	15. 06. 2019 19:02

#	Modifying user name:	WinNT
#	Modification time:	15. 06. 2019 19:02

#	Program:	/corina/corina34_cracker 3.40 0067  02.08.2006

@<TRIPOS>MOLECULE
ASD01148241
  46   49    0    0    0
SMALL
NO_CHARGES


@<TRIPOS>ATOM
   1 C1            -0.0167     1.3791     0.0096 C.ar    
   2 C2             0.0021    -0.0041     0.0020 C.ar    
   3 C3            -1.1867    -0.7114     0.0101 C.ar    
   4 C4            -2.3937    -0.0352     0.0257 C.ar    
   5 C5            -2.4118     1.3469     0.0333 C.ar    
   6 C6            -1.2242     2.0542     0.0306 C.ar    
   7 C7            -3.7267     2.0828     0.0503 C.3     
   8 O8            -4.7311     1.3288     0.7589 O.3     
   9 C9            -3.6320     3.3664     0.9093 C.3     
  10 C10           -4.1221     2.8929     2.2646 C.2     
  11 N11           -4.7168     1.7582     2.1060 N.2     
  12 C12           -3.9484     3.6069     3.5448 C.ar    
  13 C13           -4.4516     3.0557     4.7260 C.ar    
  14 C14           -3.2759     4.8311     3.5764 C.ar    
  15 C15           -3.1140     5.4968     4.7704 C.ar    
  16 C16           -3.6222     4.9484     5.9504 C.ar    
  17 C17           -4.2896     3.7216     5.9198 C.ar    
  18 C18           -3.4479     5.6630     7.2323 C.2     
  19 O19           -2.8624     6.7280     7.2598 O.2     
  20 N20           -3.9381     5.1340     8.3708 N.am    
  21 C21           -4.1878     2.4076    -1.3720 C.3     
  22 F22           -4.3307     1.2205    -2.0984 F       
  23 F23           -5.4163     3.0751    -1.3230 F       
  24 F24           -3.2379     3.2241    -1.9951 F       
  25 Cl25          -1.1641    -2.4472    -0.0001 Cl      
  26 Cl26           1.4747     2.2676     0.0002 Cl      
  27 C27           -3.7654     5.8423     9.6415 C.3     
  28 C28           -4.3997     5.0446    10.7516 C.2     
  29 C29           -3.7088     4.1937    11.5163 C.2     
  30 S30           -4.8249     3.4798    12.6779 S.3     
  31 C31           -6.1094     4.3963    12.0198 C.2     
  32 N32           -5.6799     5.1329    11.0514 N.2     
  33 H33            0.9444    -0.5315    -0.0105 H       
  34 H34           -3.3218    -0.5873     0.0316 H       
  35 H35           -1.2390     3.1341     0.0365 H       
  36 H36           -2.6012     3.7155     0.9710 H       
  37 H37           -4.2827     4.1460     0.5133 H       
  38 H38           -4.9679     2.1074     4.7023 H       
  39 H39           -2.8827     5.2550     2.6642 H       
  40 H40           -2.5939     6.4430     4.7949 H       
  41 H41           -4.6824     3.2978     6.8322 H       
  42 H42           -4.4054     4.2842     8.3489 H       
  43 H43           -2.7021     5.9678     9.8459 H       
  44 H44           -4.2414     6.8209     9.5796 H       
  45 H45           -2.6529     3.9813    11.4364 H       
  46 H46           -7.1315     4.3666    12.3674 H       
@<TRIPOS>BOND
   1    1    2 ar
   2    1   26 1
   3    1    6 ar
   4    2    3 ar
   5    2   33 1
   6    3    4 ar
   7    3   25 1
   8    4    5 ar
   9    4   34 1
  10    5    6 ar
  11    5    7 1
  12    6   35 1
  13    7    8 1
  14    7    9 1
  15    7   21 1
  16    8   11 1
  17    9   10 1
  18    9   36 1
  19    9   37 1
  20   10   11 2
  21   10   12 1
  22   12   13 ar
  23   12   14 ar
  24   13   17 ar
  25   13   38 1
  26   14   15 ar
  27   14   39 1
  28   15   16 ar
  29   15   40 1
  30   16   17 ar
  31   16   18 1
  32   17   41 1
  33   18   19 2
  34   18   20 am
  35   20   27 1
  36   20   42 1
  37   21   22 1
  38   21   23 1
  39   21   24 1
  40   27   28 1
  41   27   43 1
  42   27   44 1
  43   28   29 2
  44   28   32 1
  45   29   30 1
  46   29   45 1
  47   30   31 1
  48   31   32 2
  49   31   46 1

#	End of record

