#	Name: ASD02198846
#	Creating user name:	WinNT
#	Creation time:	15. 06. 2019 20:20

#	Modifying user name:	WinNT
#	Modification time:	15. 06. 2019 20:20

#	Program:	/corina/corina34_cracker 3.40 0067  02.08.2006

@<TRIPOS>MOLECULE
ASD02198846
  58   62    0    0    0
SMALL
NO_CHARGES


@<TRIPOS>ATOM
   1 C1            -0.0436     1.5037    -0.1142 C.2     
   2 C2            -0.0739     0.1639     0.0985 C.2     
   3 N3             1.0700    -0.5381     0.2608 N.pl3   
   4 N4             2.2347    -0.0037     0.2269 N.2     
   5 C5             2.4066     1.2859     0.0285 C.2     
   6 C6             1.2214     2.1372    -0.1599 C.2     
   7 C7             0.9780    -1.9173     0.4771 C.ar    
   8 C8             1.5795    -2.4897     1.5972 C.ar    
   9 C9             1.4862    -3.8551     1.8086 C.ar    
  10 C10            0.7943    -4.6505     0.9055 C.ar    
  11 C11            0.1955    -4.0779    -0.2102 C.ar    
  12 C12            0.2825    -2.7167    -0.4207 C.ar    
  13 C13            3.7638     1.8678    -0.0039 C.2     
  14 N14            4.3061     2.6075    -1.0170 N.pl3   
  15 N15            5.6082     2.9584    -0.6393 N.2     
  16 C16            5.8518     2.4587     0.5461 C.2     
  17 C17            4.7193     1.7721     0.9839 C.2     
  18 C18            3.6734     2.9522    -2.2182 C.ar    
  19 C19            2.9110     2.0109    -2.8975 C.ar    
  20 C20            2.2869     2.3509    -4.0823 C.ar    
  21 C21            2.4197     3.6272    -4.5946 C.ar    
  22 C22            3.1808     4.5720    -3.9202 C.ar    
  23 C23            3.8029     4.2366    -2.7281 C.ar    
  24 O24            1.3247     3.3404    -0.3479 O.2     
  25 N25            0.7001    -6.0305     1.1185 N.am    
  26 C26            0.0006    -6.9851     0.2451 C.3     
  27 C27            0.2118    -8.3431     0.9419 C.3     
  28 O28            0.9999    -8.0149     2.1226 O.3     
  29 C29            1.2375    -6.6985     2.1485 C.2     
  30 O30            1.8755    -6.1570     3.0295 O.2     
  31 O31            2.2567    -1.7091     2.4797 O.3     
  32 C32            2.8475    -2.3635     3.6043 C.3     
  33 C33            7.1405     2.6061     1.3131 C.3     
  34 O34            3.3113     5.8267    -4.4257 O.3     
  35 C35            2.6378     6.1041    -5.6552 C.3     
  36 F36            1.2628     5.9070    -5.4885 F       
  37 F37            2.8769     7.4309    -6.0288 F       
  38 F38            3.1145     5.2459    -6.6519 F       
  39 H39           -0.9548     2.0677    -0.2487 H       
  40 H40           -1.0239    -0.3481     0.1390 H       
  41 H41            1.9516    -4.3008     2.6752 H       
  42 H42           -0.3420    -4.6986    -0.9118 H       
  43 H43           -0.1837    -2.2740    -1.2885 H       
  44 H44            4.6133     1.2525     1.9248 H       
  45 H45            2.8062     1.0124    -2.4995 H       
  46 H46            1.6944     1.6176    -4.6092 H       
  47 H47            1.9310     3.8900    -5.5212 H       
  48 H48            4.3952     4.9705    -2.2017 H       
  49 H49           -1.0611    -6.7450     0.1882 H       
  50 H50            0.4464    -6.9918    -0.7496 H       
  51 H51           -0.7454    -8.7777     1.2302 H       
  52 H52            0.7618    -9.0243     0.2927 H       
  53 H53            3.3560    -1.6276     4.2272 H       
  54 H54            2.0700    -2.8576     4.1869 H       
  55 H55            3.5672    -3.1046     3.2566 H       
  56 H56            7.0934     3.5007     1.9341 H       
  57 H57            7.2884     1.7315     1.9466 H       
  58 H58            7.9719     2.6928     0.6136 H       
@<TRIPOS>BOND
   1    1    2 2
   2    1    6 1
   3    1   39 1
   4    2    3 1
   5    2   40 1
   6    3    4 1
   7    3    7 1
   8    4    5 2
   9    5    6 1
  10    5   13 1
  11    6   24 2
  12    7    8 ar
  13    7   12 ar
  14    8    9 ar
  15    8   31 1
  16    9   10 ar
  17    9   41 1
  18   10   11 ar
  19   10   25 1
  20   11   12 ar
  21   11   42 1
  22   12   43 1
  23   13   14 1
  24   13   17 2
  25   14   15 1
  26   14   18 1
  27   15   16 2
  28   16   17 1
  29   16   33 1
  30   17   44 1
  31   18   19 ar
  32   18   23 ar
  33   19   20 ar
  34   19   45 1
  35   20   21 ar
  36   20   46 1
  37   21   22 ar
  38   21   47 1
  39   22   23 ar
  40   22   34 1
  41   23   48 1
  42   25   26 1
  43   25   29 am
  44   26   27 1
  45   26   49 1
  46   26   50 1
  47   27   28 1
  48   27   51 1
  49   27   52 1
  50   28   29 1
  51   29   30 2
  52   31   32 1
  53   32   53 1
  54   32   54 1
  55   32   55 1
  56   33   56 1
  57   33   57 1
  58   33   58 1
  59   34   35 1
  60   35   36 1
  61   35   37 1
  62   35   38 1

#	End of record

