#	Name: ASD01914456
#	Creating user name:	WinNT
#	Creation time:	15. 06. 2019 20:03

#	Modifying user name:	WinNT
#	Modification time:	15. 06. 2019 20:03

#	Program:	/corina/corina34_cracker 3.40 0067  02.08.2006

@<TRIPOS>MOLECULE
ASD01914456
  16   16    0    0    0
SMALL
NO_CHARGES


@<TRIPOS>ATOM
   1 C1            -0.0159     1.3208     0.0093 C.ar    
   2 N2             0.0021    -0.0041     0.0020 N.ar    
   3 C3             1.1460    -0.6642    -0.0125 C.ar    
   4 C4             2.3380     0.0477    -0.0201 C.ar    
   5 C5             2.2814     1.4344    -0.0121 C.ar    
   6 N6             1.1025     2.0306     0.0024 N.ar    
   7 C7            -1.3217     2.0270     0.0193 C.2     
   8 O8            -2.3556     1.3912     0.0207 O.2     
   9 O9            -1.3590     3.3729     0.0268 O.3     
  10 C10            1.1573    -2.1712    -0.0202 C.3     
  11 F11           -0.1542    -2.6468    -0.1247 F       
  12 F12            1.9067    -2.6263    -1.1103 F       
  13 F13            1.7299    -2.6393     1.1673 F       
  14 H14            3.2879    -0.4661    -0.0316 H       
  15 H15            3.1896     2.0188    -0.0177 H       
  16 H16           -2.2324     3.7878     0.0331 H       
@<TRIPOS>BOND
   1    1    2 ar
   2    1    6 ar
   3    1    7 1
   4    2    3 ar
   5    3    4 ar
   6    3   10 1
   7    4    5 ar
   8    4   14 1
   9    5    6 ar
  10    5   15 1
  11    7    8 2
  12    7    9 1
  13    9   16 1
  14   10   11 1
  15   10   12 1
  16   10   13 1

#	End of record

