#	Name: ASD03740133
#	Creating user name:	WinNT
#	Creation time:	15. 06. 2019 20:46

#	Modifying user name:	WinNT
#	Modification time:	15. 06. 2019 20:46

#	Program:	/corina/corina34_cracker 3.40 0067  02.08.2006

@<TRIPOS>MOLECULE
ASD03740133
  30   32    0    0    0
SMALL
NO_CHARGES


@<TRIPOS>ATOM
   1 C1            -0.0168     1.3863     0.0097 C.ar    
   2 C2             0.0021    -0.0041     0.0020 C.ar    
   3 C3            -1.1732    -0.7220     0.0089 C.ar    
   4 C4            -2.3927    -0.0501     0.0242 C.ar    
   5 C5            -2.4073     1.3582     0.0323 C.ar    
   6 C6            -1.2002     2.0653     0.0303 C.ar    
   7 N7            -3.7009    -0.4585     0.0341 N.pl3   
   8 N8            -4.5311     0.6671     0.0483 N.2     
   9 C9            -3.8124     1.7531     0.0478 C.2     
  10 Cl10           1.5218    -0.8430    -0.0170 Cl      
  11 C11           -5.5028    -2.1877     2.1128 C.ar    
  12 C12           -4.2995    -2.3372     1.4489 C.ar    
  13 C13           -3.2271    -2.9330     2.0862 C.ar    
  14 C14           -3.3576    -3.3797     3.3876 C.ar    
  15 C15           -4.5616    -3.2304     4.0526 C.ar    
  16 C16           -5.6344    -2.6340     3.4142 C.ar    
  17 C17           -4.1567    -1.8508     0.0297 C.3     
  18 Cl18          -4.7263    -3.7917     5.6871 Cl      
  19 N19            1.2590     2.1369     0.0015 N.pl3   
  20 O20            1.2491     3.3548     0.0081 O.2     
  21 O21            2.3187     1.5365    -0.0118 O.2     
  22 H22           -1.1491    -1.8018     0.0022 H       
  23 H23           -1.2050     3.1453     0.0365 H       
  24 H24           -4.1889     2.7653     0.0571 H       
  25 H25           -6.3388    -1.7181     1.6159 H       
  26 H26           -2.2874    -3.0499     1.5669 H       
  27 H27           -2.5199    -3.8455     3.8853 H       
  28 H28           -6.5744    -2.5168     3.9329 H       
  29 H29           -5.1205    -1.9160    -0.4754 H       
  30 H30           -3.4289    -2.4697    -0.4950 H       
@<TRIPOS>BOND
   1    1    2 ar
   2    1   19 1
   3    1    6 ar
   4    2    3 ar
   5    2   10 1
   6    3    4 ar
   7    3   22 1
   8    4    5 ar
   9    4    7 1
  10    5    6 ar
  11    5    9 1
  12    6   23 1
  13    7    8 1
  14    7   17 1
  15    8    9 2
  16    9   24 1
  17   11   12 ar
  18   11   16 ar
  19   11   25 1
  20   12   13 ar
  21   12   17 1
  22   13   14 ar
  23   13   26 1
  24   14   15 ar
  25   14   27 1
  26   15   16 ar
  27   15   18 1
  28   16   28 1
  29   17   29 1
  30   17   30 1
  31   19   20 2
  32   19   21 2

#	End of record

