#	Name: ASD01152557
#	Creating user name:	WinNT
#	Creation time:	15. 06. 2019 19:06

#	Modifying user name:	WinNT
#	Modification time:	15. 06. 2019 19:06

#	Program:	/corina/corina34_cracker 3.40 0067  02.08.2006

@<TRIPOS>MOLECULE
ASD01152557
  56   58    0    0    0
SMALL
NO_CHARGES


@<TRIPOS>ATOM
   1 C1             0.1107     1.1569    -0.6965 C.2     
   2 N2             0.0184    -0.1438    -0.6179 N.2     
   3 N3            -1.1208    -0.7663    -0.1081 N.am    
   4 C4            -2.2618    -0.0996     0.1332 C.2     
   5 C5            -2.3931     1.3532    -0.2595 C.3     
   6 C6            -1.0091     1.9734    -0.2041 C.2     
   7 C7            -2.9569     1.4574    -1.6780 C.3     
   8 O8            -0.8367     3.0970     0.2214 O.2     
   9 C9            -1.0736    -2.1392     0.1619 C.ar    
  10 O10           -3.1905    -0.6665     0.6685 O.2     
  11 C11           -3.2001     2.9055    -2.0168 C.ar    
  12 C12           -0.0101    -2.6697     0.8787 C.ar    
  13 C13           -2.0943    -2.9704    -0.2825 C.ar    
  14 C14           -2.0494    -4.3253    -0.0164 C.ar    
  15 C15           -0.9885    -4.8585     0.6937 C.ar    
  16 C16            0.0336    -4.0301     1.1451 C.ar    
  17 C17           -2.1679     3.6821    -2.5122 C.ar    
  18 C18           -4.4562     3.4552    -1.8375 C.ar    
  19 C19           -4.6836     4.7829    -2.1479 C.ar    
  20 C20           -2.3929     5.0163    -2.8245 C.ar    
  21 C21           -3.6538     5.5664    -2.6389 C.ar    
  22 O22           -1.3800     5.7825    -3.3112 O.3     
  23 F23           -3.8768     6.8639    -2.9420 F       
  24 F24           -0.9475    -6.1838     0.9528 F       
  25 F25           -0.9421     3.1431    -2.6915 F       
  26 C26           -1.2164     5.8162    -4.7304 C.3     
  27 C27           -0.6328     7.1685    -5.1446 C.3     
  28 C28           -0.2659     4.6972    -5.1609 C.3     
  29 N29            1.1054    -4.5690     1.8677 N.am    
  30 C30            1.7698    -3.8055     2.7576 C.2     
  31 O31            1.5003    -2.6279     2.8670 O.2     
  32 C32            2.8477    -4.4147     3.6167 C.3     
  33 O33            1.2204     1.7434    -1.2172 O.3     
  34 C34            2.2629     0.8753    -1.6663 C.3     
  35 H35           -3.0536     1.8662     0.4395 H       
  36 H36           -2.2432     1.0339    -2.3847 H       
  37 H37           -3.8963     0.9077    -1.7370 H       
  38 H38            0.7822    -2.0243     1.2282 H       
  39 H39           -2.9241    -2.5569    -0.8365 H       
  40 H40           -2.8440    -4.9694    -0.3629 H       
  41 H41           -5.2614     2.8458    -1.4545 H       
  42 H42           -5.6659     5.2091    -2.0074 H       
  43 H43           -2.1845     5.6756    -5.2112 H       
  44 H44            0.3353     7.3091    -4.6638 H       
  45 H45           -0.5080     7.1942    -6.2271 H       
  46 H46           -1.3100     7.9657    -4.8379 H       
  47 H47           -0.1411     4.7229    -6.2435 H       
  48 H48            0.7022     4.8377    -4.6801 H       
  49 H49           -0.6817     3.7337    -4.8659 H       
  50 H50            1.3695    -5.4918     1.7277 H       
  51 H51            2.9468    -5.4738     3.3786 H       
  52 H52            3.7941    -3.9091     3.4252 H       
  53 H53            2.5816    -4.3020     4.6677 H       
  54 H54            3.0878     1.4705    -2.0578 H       
  55 H55            2.6160     0.2696    -0.8317 H       
  56 H56            1.8800     0.2238    -2.4518 H       
@<TRIPOS>BOND
   1    1    2 2
   2    1   33 1
   3    1    6 1
   4    2    3 1
   5    3    4 am
   6    3    9 1
   7    4    5 1
   8    4   10 2
   9    5    6 1
  10    5    7 1
  11    5   35 1
  12    6    8 2
  13    7   11 1
  14    7   36 1
  15    7   37 1
  16    9   12 ar
  17    9   13 ar
  18   11   17 ar
  19   11   18 ar
  20   12   16 ar
  21   12   38 1
  22   13   14 ar
  23   13   39 1
  24   14   15 ar
  25   14   40 1
  26   15   16 ar
  27   15   24 1
  28   16   29 1
  29   17   25 1
  30   17   20 ar
  31   18   19 ar
  32   18   41 1
  33   19   21 ar
  34   19   42 1
  35   20   22 1
  36   20   21 ar
  37   21   23 1
  38   22   26 1
  39   26   27 1
  40   26   28 1
  41   26   43 1
  42   27   44 1
  43   27   45 1
  44   27   46 1
  45   28   47 1
  46   28   48 1
  47   28   49 1
  48   29   30 am
  49   29   50 1
  50   30   31 2
  51   30   32 1
  52   32   51 1
  53   32   52 1
  54   32   53 1
  55   33   34 1
  56   34   54 1
  57   34   55 1
  58   34   56 1

#	End of record

