#	Name: ASD04880458
#	Creating user name:	WinNT
#	Creation time:	15. 06. 2019 20:53

#	Modifying user name:	WinNT
#	Modification time:	15. 06. 2019 20:53

#	Program:	/corina/corina34_cracker 3.40 0067  02.08.2006

@<TRIPOS>MOLECULE
ASD04880458
  59   62    0    0    0
SMALL
NO_CHARGES


@<TRIPOS>ATOM
   1 C1            -0.6842    -0.6203     1.9700 C.ar    
   2 C2            -1.1977    -1.8815     2.2332 C.ar    
   3 C3            -2.5331    -2.1461     2.0111 C.ar    
   4 C4            -3.3716    -1.1425     1.5205 C.ar    
   5 C5            -2.8538     0.1285     1.2559 C.ar    
   6 C6            -1.5160     0.3875     1.4859 C.ar    
   7 O7             0.6327    -0.3651     2.1902 O.3     
   8 C8             1.4270    -1.4415     2.6927 C.3     
   9 C9            -4.7991    -1.4232     1.2820 C.2     
  10 C10           -5.4798    -2.7510     1.5263 C.3     
  11 C11           -6.9450    -2.4975     1.1196 C.3     
  12 N12           -6.9469    -1.0880     0.6968 N.am    
  13 N13           -5.6598    -0.5734     0.8385 N.2     
  14 C14           -8.0194    -0.4051     0.2496 C.2     
  15 O15           -9.0982    -0.9543     0.1703 O.2     
  16 C16           -7.8785     1.0406    -0.1518 C.3     
  17 O17           -9.1148     1.5064    -0.6964 O.3     
  18 C18           -7.5199     1.8650     1.0576 C.ar    
  19 C19           -9.2316     1.3275    -2.1093 C.3     
  20 C20           -8.5041     2.2447     1.9512 C.ar    
  21 C21           -8.1784     3.0009     3.0623 C.ar    
  22 C22           -6.8682     3.3789     3.2820 C.ar    
  23 C23           -5.8783     2.9991     2.3866 C.ar    
  24 C24           -6.2070     2.2360     1.2755 C.ar    
  25 O25           -1.0090     1.6232     1.2300 O.3     
  26 C26           -1.9163     2.6049     0.7249 C.3     
  27 O27           -4.5886     3.3696     2.6004 O.3     
  28 C28           -4.2947     4.0186     3.7576 C.ar    
  29 C29           -3.9558     3.2962     4.8928 C.ar    
  30 C30           -3.6576     3.9584     6.0678 C.ar    
  31 C31           -3.6966     5.3398     6.1135 C.ar    
  32 C32           -4.0345     6.0620     4.9838 C.ar    
  33 C33           -4.3276     5.4050     3.8046 C.ar    
  34 H34           -0.5504    -2.6584     2.6125 H       
  35 H35           -2.9302    -3.1293     2.2162 H       
  36 H36           -3.4985     0.9074     0.8766 H       
  37 H37            2.4553    -1.1041     2.8232 H       
  38 H38            1.0280    -1.7704     3.6522 H       
  39 H39            1.4037    -2.2709     1.9859 H       
  40 H40           -5.0385    -3.5276     0.9016 H       
  41 H41           -5.4172    -3.0247     2.5795 H       
  42 H42           -7.2312    -3.1466     0.2921 H       
  43 H43           -7.6101    -2.6435     1.9708 H       
  44 H44           -7.0928     1.1346    -0.9015 H       
  45 H45          -10.1972     1.7060    -2.4448 H       
  46 H46           -8.4329     1.8730    -2.6119 H       
  47 H47           -9.1540     0.2670    -2.3489 H       
  48 H48           -9.5292     1.9505     1.7811 H       
  49 H49           -8.9492     3.2965     3.7586 H       
  50 H50           -6.6144     3.9697     4.1497 H       
  51 H51           -5.4385     1.9392     0.5771 H       
  52 H52           -1.3845     3.5427     0.5645 H       
  53 H53           -2.3366     2.2594    -0.2196 H       
  54 H54           -2.7198     2.7613     1.4446 H       
  55 H55           -3.9255     2.2172     4.8577 H       
  56 H56           -3.3940     3.3966     6.9518 H       
  57 H57           -3.4631     5.8555     7.0332 H       
  58 H58           -4.0650     7.1409     5.0223 H       
  59 H59           -4.5915     5.9695     2.9225 H       
@<TRIPOS>BOND
   1    1    2 ar
   2    1    7 1
   3    1    6 ar
   4    2    3 ar
   5    2   34 1
   6    3    4 ar
   7    3   35 1
   8    4    5 ar
   9    4    9 1
  10    5    6 ar
  11    5   36 1
  12    6   25 1
  13    7    8 1
  14    8   37 1
  15    8   38 1
  16    8   39 1
  17    9   10 1
  18    9   13 2
  19   10   11 1
  20   10   40 1
  21   10   41 1
  22   11   12 1
  23   11   42 1
  24   11   43 1
  25   12   13 1
  26   12   14 am
  27   14   15 2
  28   14   16 1
  29   16   17 1
  30   16   18 1
  31   16   44 1
  32   17   19 1
  33   18   20 ar
  34   18   24 ar
  35   19   45 1
  36   19   46 1
  37   19   47 1
  38   20   21 ar
  39   20   48 1
  40   21   22 ar
  41   21   49 1
  42   22   23 ar
  43   22   50 1
  44   23   24 ar
  45   23   27 1
  46   24   51 1
  47   25   26 1
  48   26   52 1
  49   26   53 1
  50   26   54 1
  51   27   28 1
  52   28   29 ar
  53   28   33 ar
  54   29   30 ar
  55   29   55 1
  56   30   31 ar
  57   30   56 1
  58   31   32 ar
  59   31   57 1
  60   32   33 ar
  61   32   58 1
  62   33   59 1

#	End of record

