#	Name: ASD01901020
#	Creating user name:	WinNT
#	Creation time:	15. 06. 2019 19:53

#	Modifying user name:	WinNT
#	Modification time:	15. 06. 2019 19:53

#	Program:	/corina/corina34_cracker 3.40 0067  02.08.2006

@<TRIPOS>MOLECULE
ASD01901020
  24   25    0    0    0
SMALL
NO_CHARGES


@<TRIPOS>ATOM
   1 C1            -0.0159     1.3190     0.0093 C.ar    
   2 N2             0.0021    -0.0041     0.0020 N.ar    
   3 C3             1.1601    -0.6667    -0.0126 C.ar    
   4 C4             2.3576     0.0618    -0.0202 C.ar    
   5 C5             2.2877     1.4420    -0.0121 C.ar    
   6 N6             1.1017     2.0314     0.0024 N.ar    
   7 N7            -1.2340     1.9764     0.0186 N.pl3   
   8 C8             1.1792    -2.0986    -0.0200 C.1     
   9 C9             1.1948    -3.2724    -0.0261 C.1     
  10 C10            1.2140    -4.7043    -0.0335 C.ar    
  11 C11            2.4315    -5.3902    -0.0489 C.ar    
  12 C12            2.4420    -6.7693    -0.0560 C.ar    
  13 C13            1.2509    -7.4738    -0.0484 C.ar    
  14 C14            0.0415    -6.8015    -0.0336 C.ar    
  15 C15            0.0152    -5.4226    -0.0196 C.ar    
  16 H16            3.3120    -0.4434    -0.0317 H       
  17 H17            3.1910     2.0340    -0.0173 H       
  18 H18           -2.0597     1.4674     0.0197 H       
  19 H19           -1.2618     2.9459     0.0240 H       
  20 H20            3.3618    -4.8417    -0.0555 H       
  21 H21            3.3821    -7.3008    -0.0678 H       
  22 H22            1.2653    -8.5537    -0.0544 H       
  23 H23           -0.8841    -7.3579    -0.0285 H       
  24 H24           -0.9294    -4.8993    -0.0033 H       
@<TRIPOS>BOND
   1    1    2 ar
   2    1    6 ar
   3    1    7 1
   4    2    3 ar
   5    3    4 ar
   6    3    8 1
   7    4    5 ar
   8    4   16 1
   9    5    6 ar
  10    5   17 1
  11    7   18 1
  12    7   19 1
  13    8    9 3
  14    9   10 1
  15   10   11 ar
  16   10   15 ar
  17   11   12 ar
  18   11   20 1
  19   12   13 ar
  20   12   21 1
  21   13   14 ar
  22   13   22 1
  23   14   15 ar
  24   14   23 1
  25   15   24 1

#	End of record

