#	Name: ASD01814001
#	Creating user name:	WinNT
#	Creation time:	15. 06. 2019 19:31

#	Modifying user name:	WinNT
#	Modification time:	15. 06. 2019 19:31

#	Program:	/corina/corina34_cracker 3.40 0067  02.08.2006

@<TRIPOS>MOLECULE
ASD01814001
  49   53    0    0    0
SMALL
NO_CHARGES


@<TRIPOS>ATOM
   1 C1            -0.0167     1.3820     0.0096 C.ar    
   2 C2             0.0021    -0.0041     0.0020 C.ar    
   3 C3             1.1959    -0.6932    -0.0127 C.ar    
   4 C4             2.4016     0.0019    -0.0205 C.ar    
   5 C5             2.3831     1.4075    -0.0132 C.ar    
   6 C6             1.1665     2.0939     0.0022 C.ar    
   7 N7             3.6010    -0.6771    -0.0346 N.pl3   
   8 C8             4.7870    -0.0549    -0.0418 C.2     
   9 C9             4.8957     1.3208    -0.0358 C.2     
  10 C10            3.6666     2.1313    -0.0216 C.2     
  11 F11            1.1476     3.4448     0.0091 F       
  12 O12            3.7090     3.3491    -0.0163 O.2     
  13 C13            6.2161     1.9660    -0.0431 C.2     
  14 O14            6.3092     3.3109    -0.0372 O.3     
  15 O15            7.2244     1.2870    -0.0544 O.2     
  16 C16            3.5775    -2.1419    -0.0418 C.3     
  17 C17            3.5567    -2.6371    -1.4649 C.ar    
  18 C18            4.7455    -2.8829    -2.1274 C.ar    
  19 C19            4.7299    -3.3363    -3.4317 C.ar    
  20 C20            3.5184    -3.5458    -4.0782 C.ar    
  21 C21            2.3262    -3.2983    -3.4098 C.ar    
  22 C22            2.3488    -2.8500    -2.1037 C.ar    
  23 N23            3.4991    -4.0047    -5.3999 N.pl3   
  24 N24            4.3644    -3.6822    -6.2918 N.2     
  25 C25            4.1119    -4.2557    -7.4528 C.2     
  26 C26            2.8986    -5.0647    -7.2597 C.ar    
  27 C27            2.5552    -4.8630    -5.9091 C.ar    
  28 C28            4.8861    -4.1149    -8.6888 C.2     
  29 O29            5.8739    -3.4106    -8.7090 O.2     
  30 C30            2.1226    -5.8945    -8.0620 C.ar    
  31 C31            1.0215    -6.5096    -7.5337 C.ar    
  32 C32            0.6731    -6.3114    -6.2040 C.ar    
  33 C33            1.4322    -5.4991    -5.3912 C.ar    
  34 H34           -0.9604     1.9071     0.0170 H       
  35 H35           -0.9295    -0.5505     0.0080 H       
  36 H36            1.1956    -1.7731    -0.0177 H       
  37 H37            5.6884    -0.6497    -0.0521 H       
  38 H38            7.1990     3.6894    -0.0423 H       
  39 H39            4.4661    -2.5220     0.4622 H       
  40 H40            2.6865    -2.4935     0.4783 H       
  41 H41            5.6871    -2.7199    -1.6242 H       
  42 H42            5.6587    -3.5274    -3.9487 H       
  43 H43            1.3825    -3.4602    -3.9095 H       
  44 H44            1.4221    -2.6574    -1.5835 H       
  45 H45            4.5775    -4.6380    -9.5818 H       
  46 H46            2.3881    -6.0519    -9.0970 H       
  47 H47            0.4179    -7.1542    -8.1554 H       
  48 H48           -0.1999    -6.8038    -5.8016 H       
  49 H49            1.1528    -5.3514    -4.3584 H       
@<TRIPOS>BOND
   1    1    2 ar
   2    1    6 ar
   3    1   34 1
   4    2    3 ar
   5    2   35 1
   6    3    4 ar
   7    3   36 1
   8    4    5 ar
   9    4    7 1
  10    5    6 ar
  11    5   10 1
  12    6   11 1
  13    7    8 1
  14    7   16 1
  15    8    9 2
  16    8   37 1
  17    9   10 1
  18    9   13 1
  19   10   12 2
  20   13   14 1
  21   13   15 2
  22   14   38 1
  23   16   17 1
  24   16   39 1
  25   16   40 1
  26   17   18 ar
  27   17   22 ar
  28   18   19 ar
  29   18   41 1
  30   19   20 ar
  31   19   42 1
  32   20   21 ar
  33   20   23 1
  34   21   22 ar
  35   21   43 1
  36   22   44 1
  37   23   24 1
  38   23   27 1
  39   24   25 2
  40   25   26 1
  41   25   28 1
  42   26   27 ar
  43   26   30 ar
  44   27   33 ar
  45   28   29 2
  46   28   45 1
  47   30   31 ar
  48   30   46 1
  49   31   32 ar
  50   31   47 1
  51   32   33 ar
  52   32   48 1
  53   33   49 1

#	End of record

