#	Name: ASD01140329
#	Creating user name:	WinNT
#	Creation time:	15. 06. 2019 19:00

#	Modifying user name:	WinNT
#	Modification time:	15. 06. 2019 19:00

#	Program:	/corina/corina34_cracker 3.40 0067  02.08.2006

@<TRIPOS>MOLECULE
ASD01140329
  37   37    0    0    0
SMALL
NO_CHARGES


@<TRIPOS>ATOM
   1 C1             1.1064    -0.6663     3.5289 C.ar    
   2 C2             0.7325    -1.4138     2.4274 C.ar    
   3 C3             1.4594    -1.2823     1.2406 C.ar    
   4 C4             2.5404    -0.3927     1.2232 C.ar    
   5 C5             2.8443     0.3152     2.3711 C.ar    
   6 N6             2.1323     0.1610     3.4698 N.ar    
   7 C7             1.0963    -2.0627     0.0352 C.2     
   8 O8             1.7341    -1.9274    -0.9920 O.2     
   9 C9            -0.0317    -2.9985     0.0799 C.2     
  10 Cl10           3.4853    -0.1822    -0.2179 Cl      
  11 Cl11           0.2092    -0.8130     5.0079 Cl      
  12 C12            0.1923    -4.3581    -0.0409 C.2     
  13 C13           -1.3981    -2.4926     0.2526 C.2     
  14 O14           -2.3259    -3.2714     0.3584 O.2     
  15 O15           -1.6250    -1.1641     0.2942 O.3     
  16 C16           -3.0103    -0.7335     0.3559 C.3     
  17 C17           -3.0741     0.7929     0.2736 C.3     
  18 N18           -0.8244    -5.2262     0.1291 N.pl3   
  19 C19           -0.5681    -6.6684     0.1037 C.3     
  20 C20           -1.8811    -7.4236     0.3193 C.3     
  21 C21           -1.6135    -8.9298     0.2928 C.3     
  22 H22           -0.1083    -2.0894     2.4833 H       
  23 H23            3.6764     1.0035     2.3678 H       
  24 H24            1.1820    -4.7239    -0.2713 H       
  25 H25           -3.5626    -1.1658    -0.4785 H       
  26 H26           -3.4525    -1.0656     1.2952 H       
  27 H27           -2.4499     1.2253     1.0556 H       
  28 H28           -2.7131     1.1196    -0.7016 H       
  29 H29           -4.1047     1.1213     0.4083 H       
  30 H30           -1.7258    -4.8962     0.2681 H       
  31 H31           -0.1440    -6.9452    -0.8615 H       
  32 H32            0.1340    -6.9267     0.8965 H       
  33 H33           -2.3052    -7.1469     1.2845 H       
  34 H34           -2.5832    -7.1654    -0.4735 H       
  35 H35           -2.5489    -9.4678     0.4464 H       
  36 H36           -1.1894    -9.2066    -0.6724 H       
  37 H37           -0.9114    -9.1881     1.0856 H       
@<TRIPOS>BOND
   1    1    2 ar
   2    1    6 ar
   3    1   11 1
   4    2    3 ar
   5    2   22 1
   6    3    4 ar
   7    3    7 1
   8    4    5 ar
   9    4   10 1
  10    5    6 ar
  11    5   23 1
  12    7    8 2
  13    7    9 1
  14    9   12 2
  15    9   13 1
  16   12   18 1
  17   12   24 1
  18   13   14 2
  19   13   15 1
  20   15   16 1
  21   16   17 1
  22   16   25 1
  23   16   26 1
  24   17   27 1
  25   17   28 1
  26   17   29 1
  27   18   19 1
  28   18   30 1
  29   19   20 1
  30   19   31 1
  31   19   32 1
  32   20   21 1
  33   20   33 1
  34   20   34 1
  35   21   35 1
  36   21   36 1
  37   21   37 1

#	End of record

