#	Name: ASD03331618
#	Creating user name:	WinNT
#	Creation time:	15. 06. 2019 20:39

#	Modifying user name:	WinNT
#	Modification time:	15. 06. 2019 20:39

#	Program:	/corina/corina34_cracker 3.40 0067  02.08.2006

@<TRIPOS>MOLECULE
ASD03331618
  44   47    0    0    0
SMALL
NO_CHARGES


@<TRIPOS>ATOM
   1 C1             0.2573     1.6424    -0.7354 C.ar    
   2 C2             0.3800     0.2881    -0.8684 C.ar    
   3 C3             1.5985    -0.3354    -0.6383 C.ar    
   4 C4             2.7060     0.3983    -0.2715 C.ar    
   5 C5             2.6054     1.7781    -0.1299 C.ar    
   6 C6             1.3673     2.4066    -0.3648 C.ar    
   7 N7             3.5073     2.7604     0.2153 N.pl3   
   8 C8             2.8853     3.9876     0.2075 C.2     
   9 C9             1.5830     3.8347    -0.1381 C.2     
  10 C10            3.5370     5.2760     0.5279 C.ar    
  11 C11            0.5540     4.9284    -0.2641 C.3     
  12 C12            0.8678     5.7769    -1.4694 C.ar    
  13 C13           -0.8344     4.3063    -0.4258 C.3     
  14 C14            1.1959     7.1102    -1.3096 C.ar    
  15 C15            1.4892     7.8870    -2.4147 C.ar    
  16 C16            1.4549     7.3305    -3.6796 C.ar    
  17 C17            1.1277     5.9969    -3.8393 C.ar    
  18 C18            0.8330     5.2204    -2.7343 C.ar    
  19 C19            4.7583     5.6087    -0.0597 C.ar    
  20 C20            5.3610     6.8122     0.2434 C.ar    
  21 C21            4.7575     7.6881     1.1281 C.ar    
  22 C22            3.5469     7.3640     1.7143 C.ar    
  23 C23            2.9305     6.1667     1.4146 C.ar    
  24 N24           -1.1944     3.5900     0.8004 N.pl3   
  25 O25           -0.9627     4.0887     1.8873 O.2     
  26 O26           -1.7253     2.4959     0.7331 O.2     
  27 H27           -0.6929     2.1212    -0.9204 H       
  28 H28           -0.4781    -0.3019    -1.1544 H       
  29 H29            1.6796    -1.4068    -0.7475 H       
  30 H30            3.6493    -0.0969    -0.0941 H       
  31 H31            4.4408     2.6095     0.4315 H       
  32 H32            0.5719     5.5491     0.6318 H       
  33 H33           -1.5651     5.0926    -0.6151 H       
  34 H34           -0.8249     3.6096    -1.2640 H       
  35 H35            1.2226     7.5450    -0.3214 H       
  36 H36            1.7448     8.9289    -2.2899 H       
  37 H37            1.6834     7.9376    -4.5431 H       
  38 H38            1.1003     5.5623    -4.8276 H       
  39 H39            0.5767     4.1788    -2.8592 H       
  40 H40            5.2307     4.9255    -0.7499 H       
  41 H41            6.3062     7.0709    -0.2106 H       
  42 H42            5.2335     8.6288     1.3623 H       
  43 H43            3.0813     8.0518     2.4047 H       
  44 H44            1.9832     5.9169     1.8692 H       
@<TRIPOS>BOND
   1    1    2 ar
   2    1    6 ar
   3    1   27 1
   4    2    3 ar
   5    2   28 1
   6    3    4 ar
   7    3   29 1
   8    4    5 ar
   9    4   30 1
  10    5    7 1
  11    5    6 ar
  12    6    9 1
  13    7    8 1
  14    7   31 1
  15    8    9 2
  16    8   10 1
  17    9   11 1
  18   10   19 ar
  19   10   23 ar
  20   11   13 1
  21   11   12 1
  22   11   32 1
  23   12   14 ar
  24   12   18 ar
  25   13   24 1
  26   13   33 1
  27   13   34 1
  28   14   15 ar
  29   14   35 1
  30   15   16 ar
  31   15   36 1
  32   16   17 ar
  33   16   37 1
  34   17   18 ar
  35   17   38 1
  36   18   39 1
  37   19   20 ar
  38   19   40 1
  39   20   21 ar
  40   20   41 1
  41   21   22 ar
  42   21   42 1
  43   22   23 ar
  44   22   43 1
  45   23   44 1
  46   24   25 2
  47   24   26 2

#	End of record

