#	Name: ASD00100063
#	Creating user name:	WinNT
#	Creation time:	15. 06. 2019 18:30

#	Modifying user name:	WinNT
#	Modification time:	15. 06. 2019 18:30

#	Program:	/corina/corina34_cracker 3.40 0067  02.08.2006

@<TRIPOS>MOLECULE
ASD00100063
  76   81    0    0    0
SMALL
NO_CHARGES


@<TRIPOS>ATOM
   1 C1            -0.0168     1.3908     0.0097 C.ar    
   2 C2             0.0021    -0.0041     0.0020 C.ar    
   3 C3             1.2032    -0.6766    -0.0131 C.ar    
   4 C4             2.4034     0.0383    -0.0208 C.ar    
   5 C5             2.3833     1.4352    -0.0131 C.ar    
   6 C6             1.1811     2.1057     0.0021 C.ar    
   7 C7            -1.3112     2.1141     0.0198 C.ar    
   8 C8            -1.3338     3.5079     0.0274 C.ar    
   9 C9            -2.5414     4.1757     0.0368 C.ar    
  10 C10           -3.7280     3.4647     0.0387 C.ar    
  11 C11           -3.7118     2.0815     0.0315 C.ar    
  12 C12           -2.5102     1.4030     0.0158 C.ar    
  13 C13            3.6929    -0.6822    -0.0365 C.2     
  14 O14            3.7099    -1.8978    -0.0428 O.2     
  15 N15            4.8505     0.0080    -0.0439 N.am    
  16 C16            6.1293    -0.7066    -0.0595 C.3     
  17 C17            7.2065     0.1889    -0.6748 C.3     
  18 C18            8.5420    -0.5574    -0.6911 C.3     
  19 C19            8.9394    -0.9232     0.7404 C.3     
  20 C20            7.8622    -1.8187     1.3557 C.3     
  21 C21            6.5266    -1.0724     1.3720 C.3     
  22 C22           10.2749    -1.6695     0.7241 C.3     
  23 C23           10.7336    -1.9255     2.1611 C.3     
  24 N24           12.0159    -2.6421     2.1455 N.3     
  25 C25           12.6041    -2.6978     3.4898 C.3     
  26 C26           14.0002    -3.3197     3.4119 C.3     
  27 C27           13.8937    -4.7288     2.8223 C.3     
  28 C28           13.2339    -4.6479     1.4429 C.3     
  29 C29           11.8600    -3.9875     1.5779 C.3     
  30 O30           17.3648    -5.6380     2.0833 O.3     
  31 C31           16.2894    -4.8403     1.9620 C.2     
  32 C32           15.2717    -5.3238     2.6873 C.2     
  33 C33           15.7691    -6.5490     3.3244 C.ar    
  34 C34           17.1003    -6.6818     2.8948 C.ar    
  35 C35           15.2131    -7.4951     4.1838 C.ar    
  36 C36           15.9765    -8.5602     4.6089 C.ar    
  37 C37           17.2908    -8.6919     4.1851 C.ar    
  38 C38           17.8525    -7.7631     3.3352 C.ar    
  39 H39           -0.9259    -0.5565     0.0083 H       
  40 H40            1.2176    -1.7565    -0.0187 H       
  41 H41            3.3106     1.9889    -0.0186 H       
  42 H42            1.1653     3.1856     0.0077 H       
  43 H43           -0.4080     4.0641     0.0264 H       
  44 H44           -2.5601     5.2555     0.0432 H       
  45 H45           -4.6708     3.9915     0.0460 H       
  46 H46           -4.6413     1.5315     0.0333 H       
  47 H47           -2.4987     0.3231     0.0054 H       
  48 H48            4.8369     0.9779    -0.0389 H       
  49 H49            6.0303    -1.6158    -0.6526 H       
  50 H50            6.9234     0.4495    -1.6946 H       
  51 H51            7.3055     1.0980    -0.0817 H       
  52 H52            8.4430    -1.4665    -1.2842 H       
  53 H53            9.3094     0.0806    -1.1294 H       
  54 H54            9.0384    -0.0141     1.3336 H       
  55 H55            7.7631    -2.7278     0.7626 H       
  56 H56            8.1452    -2.0793     2.3755 H       
  57 H57            6.6257    -0.1633     1.9651 H       
  58 H58            5.7592    -1.7104     1.8103 H       
  59 H59           10.1531    -2.6210     0.2066 H       
  60 H60           11.0214    -1.0672     0.2063 H       
  61 H61           10.8554    -0.9740     2.6786 H       
  62 H62            9.9871    -2.5278     2.6789 H       
  63 H63           12.6780    -1.6890     3.8960 H       
  64 H64           11.9718    -3.3046     4.1380 H       
  65 H65           14.6370    -2.7059     2.7749 H       
  66 H66           14.4302    -3.3752     4.4120 H       
  67 H67           13.2888    -5.3538     3.4793 H       
  68 H68           13.8587    -4.0550     0.7749 H       
  69 H69           13.1165    -5.6523     1.0362 H       
  70 H70           11.2313    -4.5882     2.2350 H       
  71 H71           11.3936    -3.9154     0.5954 H       
  72 H72           16.2512    -3.9403     1.3663 H       
  73 H73           14.1901    -7.3936     4.5148 H       
  74 H74           15.5500    -9.2955     5.2751 H       
  75 H75           17.8803    -9.5306     4.5248 H       
  76 H76           18.8768    -7.8763     3.0119 H       
@<TRIPOS>BOND
   1    1    2 ar
   2    1    6 ar
   3    1    7 1
   4    2    3 ar
   5    2   39 1
   6    3    4 ar
   7    3   40 1
   8    4    5 ar
   9    4   13 1
  10    5    6 ar
  11    5   41 1
  12    6   42 1
  13    7    8 ar
  14    7   12 ar
  15    8    9 ar
  16    8   43 1
  17    9   10 ar
  18    9   44 1
  19   10   11 ar
  20   10   45 1
  21   11   12 ar
  22   11   46 1
  23   12   47 1
  24   13   14 2
  25   13   15 am
  26   15   16 1
  27   15   48 1
  28   16   17 1
  29   16   21 1
  30   16   49 1
  31   17   18 1
  32   17   50 1
  33   17   51 1
  34   18   19 1
  35   18   52 1
  36   18   53 1
  37   19   20 1
  38   19   22 1
  39   19   54 1
  40   20   21 1
  41   20   55 1
  42   20   56 1
  43   21   57 1
  44   21   58 1
  45   22   23 1
  46   22   59 1
  47   22   60 1
  48   23   24 1
  49   23   61 1
  50   23   62 1
  51   24   25 1
  52   24   29 1
  53   25   26 1
  54   25   63 1
  55   25   64 1
  56   26   27 1
  57   26   65 1
  58   26   66 1
  59   27   28 1
  60   27   32 1
  61   27   67 1
  62   28   29 1
  63   28   68 1
  64   28   69 1
  65   29   70 1
  66   29   71 1
  67   30   31 1
  68   30   34 1
  69   31   32 2
  70   31   72 1
  71   32   33 1
  72   33   34 ar
  73   33   35 ar
  74   34   38 ar
  75   35   36 ar
  76   35   73 1
  77   36   37 ar
  78   36   74 1
  79   37   38 ar
  80   37   75 1
  81   38   76 1

#	End of record

