#	Name: ASD05060014
#	Creating user name:	WinNT
#	Creation time:	15. 06. 2019 20:56

#	Modifying user name:	WinNT
#	Modification time:	15. 06. 2019 20:56

#	Program:	/corina/corina34_cracker 3.40 0067  02.08.2006

@<TRIPOS>MOLECULE
ASD05060014
 127  128    0    0    0
SMALL
NO_CHARGES


@<TRIPOS>ATOM
   1 N1            -2.2416     3.7846    -2.3328 N.3     
   2 N2            -2.2226     2.4284    -2.8565 N.3     
   3 C3            -3.5848     1.9499    -3.1281 C.3     
   4 C4            -4.1814     1.3894    -1.8628 C.2     
   5 N5            -5.4723     1.7059    -1.5477 N.am    
   6 C6            -5.9822     1.1153    -0.2894 C.3     
   7 C7            -7.1431     1.9448     0.1959 C.2     
   8 N8            -7.3677     2.0498     1.5343 N.am    
   9 C9            -8.5184     2.8769     1.9483 C.3     
  10 C10           -8.0615     3.8573     2.9974 C.2     
  11 N11           -8.5750     5.1229     2.9829 N.am    
  12 C12           -8.0786     6.0225     4.0489 C.3     
  13 C13           -7.5485     7.2803     3.4100 C.2     
  14 N14           -6.5232     7.9451     4.0097 N.am    
  15 C15           -6.0459     9.1697     3.3370 C.3     
  16 C16           -4.5519     9.0778     3.1619 C.2     
  17 N17           -3.9558     9.8325     2.1920 N.am    
  18 C18           -2.4870     9.6821     2.0825 C.3     
  19 C19           -2.1426     9.3538     0.6525 C.2     
  20 C20           -1.1409     8.2971     0.3529 C.2     
  21 C21           -0.7990     7.9668    -1.0772 C.3     
  22 N22           -0.6167     6.5066    -1.1985 N.am    
  23 C23           -1.0922     5.9255    -2.3338 C.2     
  24 C24           -0.9381     4.4372    -2.5142 C.3     
  25 O25           -1.6327     6.5959    -3.1878 O.2     
  26 O26           -0.6008     7.7036     1.2557 O.2     
  27 O27           -2.6809     9.9491    -0.2502 O.2     
  28 O28           -3.8910     8.3475     3.8696 O.2     
  29 O29           -8.0286     7.6942     2.3760 O.2     
  30 O30           -7.2523     3.5288     3.8390 O.2     
  31 O31           -7.8675     2.5108    -0.5952 O.2     
  32 O32           -3.5275     0.6699    -1.1378 O.2     
  33 C33           -1.8051    10.9905     2.4877 C.3     
  34 C34           -2.0727    11.2677     3.9684 C.3     
  35 C35           -1.4067    10.1840     4.8186 C.3     
  36 C36           -1.4977    12.6352     4.3432 C.3     
  37 C37            0.0509     3.8976    -1.4790 C.3     
  38 O38            0.2508     2.4992    -1.6949 O.3     
  39 C39           -9.0640     3.6382     0.7384 C.3     
  40 C40           -7.9228     4.3926     0.0534 C.3     
  41 C41           -7.7141     5.7405     0.7465 C.3     
  42 C42           -9.6860     2.6485    -0.2487 C.3     
  43 C43           -6.4482    -0.3190    -0.5472 C.3     
  44 C44           -5.2478    -1.1824    -0.9403 C.3     
  45 C45           -5.7138    -2.6167    -1.1981 C.3     
  46 C46           -4.5134    -3.4800    -1.5912 C.3     
  47 N47           -4.9608    -4.8572    -1.8388 N.3     
  48 C48           -6.7158     9.2966     1.9673 C.3     
  49 C49           -6.2737     8.1580     1.0846 C.2     
  50 O50           -5.6256     7.2453     1.5512 O.2     
  51 N51           -6.5985     8.1541    -0.2235 N.am    
  52 C52           -4.4445     3.1137    -3.6255 C.3     
  53 C53           -2.8268     4.7393    -6.4717 C.2     
  54 N54           -3.5248     3.8176    -7.0768 N.2     
  55 C55           -4.2011     3.1044    -6.1642 C.2     
  56 C56           -3.9112     3.6031    -4.9473 C.2     
  57 N57           -3.0394     4.6403    -5.1418 N.pl3   
  58 C58           -9.6845     5.1280     5.7132 C.2     
  59 C59           -9.2248     6.3732     4.9997 C.3     
  60 O60           -9.1502     4.0687     5.4847 O.2     
  61 O61          -10.6875     5.1957     6.6026 O.3     
  62 C62           -3.1877     7.6473    -1.6611 C.2     
  63 C63           -1.9371     8.4193    -1.9942 C.3     
  64 O64           -3.1982     6.8918    -0.7182 O.2     
  65 O65           -4.2900     7.7988    -2.4119 O.3     
  66 H66           -2.9793     4.3260    -2.7580 H       
  67 H67           -1.6466     2.3678    -3.6827 H       
  68 H68           -3.5512     1.1712    -3.8901 H       
  69 H69           -6.0176     2.2782    -2.1099 H       
  70 H70           -5.1923     1.1166     0.4618 H       
  71 H71           -6.8009     1.6037     2.1829 H       
  72 H72           -9.2982     2.2371     2.3614 H       
  73 H73           -9.2206     5.4126     2.3194 H       
  74 H74           -7.2796     5.5284     4.6018 H       
  75 H75           -6.1260     7.6301     4.8366 H       
  76 H76           -6.2894    10.0398     3.9468 H       
  77 H77           -4.4604    10.4261     1.6141 H       
  78 H78           -2.1522     8.8749     2.7341 H       
  79 H79            0.1234     8.4747    -1.3589 H       
  80 H80           -0.1801     5.9880    -0.5048 H       
  81 H81           -0.5641     4.2295    -3.5168 H       
  82 H82           -0.7311    10.9069     2.3220 H       
  83 H83           -2.2029    11.8086     1.8872 H       
  84 H84           -3.1473    11.2632     4.1505 H       
  85 H85           -0.3320    10.1886     4.6365 H       
  86 H86           -1.5973    10.3816     5.8735 H       
  87 H87           -1.8163     9.2099     4.5516 H       
  88 H88           -1.9721    13.4072     3.7374 H       
  89 H89           -1.6883    12.8327     5.3981 H       
  90 H90           -0.4230    12.6397     4.1611 H       
  91 H91            1.0022     4.4203    -1.5784 H       
  92 H92           -0.3484     4.0572    -0.4774 H       
  93 H93            0.8678     2.0895    -1.0732 H       
  94 H94           -9.8227     4.3481     1.0678 H       
  95 H95           -7.0074     3.8045     0.1194 H       
  96 H96           -8.1737     4.5578    -0.9943 H       
  97 H97           -7.0212     6.3461     0.1623 H       
  98 H98           -8.6695     6.2588     0.8283 H       
  99 H99           -7.3029     5.5771     1.7427 H       
 100 H100         -10.6768     2.3596     0.1020 H       
 101 H101          -9.7701     3.1174    -1.2291 H       
 102 H102          -9.0543     1.7632    -0.3224 H       
 103 H103          -6.9042    -0.7210     0.3575 H       
 104 H104          -7.1794    -0.3237    -1.3556 H       
 105 H105          -4.7918    -0.7803    -1.8450 H       
 106 H106          -4.5166    -1.1777    -0.1319 H       
 107 H107          -6.1698    -3.0187    -0.2934 H       
 108 H108          -6.4450    -2.6214    -2.0065 H       
 109 H109          -4.0574    -3.0780    -2.4959 H       
 110 H110          -3.7822    -3.4753    -0.7829 H       
 111 H111          -5.6862    -4.8812    -2.5397 H       
 112 H112          -4.1856    -5.4477    -2.1003 H       
 113 H113          -7.7986     9.2635     2.0880 H       
 114 H114          -6.4300    10.2435     1.5094 H       
 115 H115          -7.1169     8.8841    -0.5967 H       
 116 H116          -6.3139     7.4213    -0.7917 H       
 117 H117          -5.4737     2.7774    -3.7510 H       
 118 H118          -4.4134     3.9250    -2.8983 H       
 119 H119          -2.1823     5.4592    -6.9542 H       
 120 H120          -4.8626     2.2756    -6.3693 H       
 121 H121          -2.6475     5.1997    -4.4530 H       
 122 H122          -8.8796     7.1044     5.7307 H       
 123 H123         -10.0540     6.7927     4.4300 H       
 124 H124         -10.9473     4.3707     7.0350 H       
 125 H125          -2.1184     9.4844    -1.8498 H       
 126 H126          -1.6621     8.2351    -3.0327 H       
 127 H127          -5.0676     7.2825    -2.1593 H       
@<TRIPOS>BOND
   1    1    2 1
   2    1   24 1
   3    1   66 1
   4    2    3 1
   5    2   67 1
   6    3    4 1
   7    3   52 1
   8    3   68 1
   9    4    5 am
  10    4   32 2
  11    5    6 1
  12    5   69 1
  13    6    7 1
  14    6   43 1
  15    6   70 1
  16    7    8 am
  17    7   31 2
  18    8    9 1
  19    8   71 1
  20    9   10 1
  21    9   39 1
  22    9   72 1
  23   10   11 am
  24   10   30 2
  25   11   12 1
  26   11   73 1
  27   12   13 1
  28   12   59 1
  29   12   74 1
  30   13   14 am
  31   13   29 2
  32   14   15 1
  33   14   75 1
  34   15   16 1
  35   15   48 1
  36   15   76 1
  37   16   17 am
  38   16   28 2
  39   17   18 1
  40   17   77 1
  41   18   19 1
  42   18   33 1
  43   18   78 1
  44   19   20 1
  45   19   27 2
  46   20   21 1
  47   20   26 2
  48   21   22 1
  49   21   63 1
  50   21   79 1
  51   22   23 am
  52   22   80 1
  53   23   24 1
  54   23   25 2
  55   24   37 1
  56   24   81 1
  57   33   34 1
  58   33   82 1
  59   33   83 1
  60   34   35 1
  61   34   36 1
  62   34   84 1
  63   35   85 1
  64   35   86 1
  65   35   87 1
  66   36   88 1
  67   36   89 1
  68   36   90 1
  69   37   38 1
  70   37   91 1
  71   37   92 1
  72   38   93 1
  73   39   40 1
  74   39   42 1
  75   39   94 1
  76   40   41 1
  77   40   95 1
  78   40   96 1
  79   41   97 1
  80   41   98 1
  81   41   99 1
  82   42  100 1
  83   42  101 1
  84   42  102 1
  85   43   44 1
  86   43  103 1
  87   43  104 1
  88   44   45 1
  89   44  105 1
  90   44  106 1
  91   45   46 1
  92   45  107 1
  93   45  108 1
  94   46   47 1
  95   46  109 1
  96   46  110 1
  97   47  111 1
  98   47  112 1
  99   48   49 1
 100   48  113 1
 101   48  114 1
 102   49   50 2
 103   49   51 am
 104   51  115 1
 105   51  116 1
 106   52   56 1
 107   52  117 1
 108   52  118 1
 109   53   54 2
 110   53   57 1
 111   53  119 1
 112   54   55 1
 113   55   56 2
 114   55  120 1
 115   56   57 1
 116   57  121 1
 117   58   59 1
 118   58   60 2
 119   58   61 1
 120   59  122 1
 121   59  123 1
 122   61  124 1
 123   62   63 1
 124   62   64 2
 125   62   65 1
 126   63  125 1
 127   63  126 1
 128   65  127 1

#	End of record

