#	Name: ASD01885874
#	Creating user name:	WinNT
#	Creation time:	15. 06. 2019 19:50

#	Modifying user name:	WinNT
#	Modification time:	15. 06. 2019 19:50

#	Program:	/corina/corina34_cracker 3.40 0067  02.08.2006

@<TRIPOS>MOLECULE
ASD01885874
  58   61    0    0    0
SMALL
NO_CHARGES


@<TRIPOS>ATOM
   1 C1             0.4981     0.6059    -0.5692 C.ar    
   2 C2            -0.6751     1.3990    -0.6384 C.ar    
   3 C3            -0.5490     2.8041    -0.7863 C.ar    
   4 C4             0.7311     3.3375    -0.8568 C.ar    
   5 C5             1.8381     2.4850    -0.7807 C.ar    
   6 N6             1.6989     1.1791    -0.6484 N.ar    
   7 C7             0.3708    -0.7908    -0.4220 C.ar    
   8 C8            -0.8692    -1.3512    -0.3440 C.ar    
   9 C9            -2.0170    -0.5654    -0.4074 C.ar    
  10 C10           -1.9321     0.7866    -0.5605 C.ar    
  11 C11           -1.7436     3.6737    -0.8637 C.ar    
  12 C12           -2.0197     4.3808    -2.0345 C.ar    
  13 C13           -3.1336     5.1896    -2.1033 C.ar    
  14 C14           -2.6022     3.7848     0.2342 C.ar    
  15 C15            3.2014     3.0617    -0.8632 C.2     
  16 N16            4.2792     2.2547    -0.8031 N.am    
  17 O17            3.3470     4.2618    -0.9851 O.2     
  18 C18           -0.9999    -2.8429    -0.1743 C.3     
  19 C19           -3.9822     5.3024    -1.0093 C.ar    
  20 C20           -3.7158     4.5973     0.1567 C.ar    
  21 O21           -5.0784     6.1012    -1.0821 O.3     
  22 N22           -0.8930    -3.1839     1.2464 N.pl3   
  23 C23           -1.9249    -3.2652     2.1421 C.2     
  24 C24           -1.3853    -3.6047     3.3284 C.2     
  25 N25           -0.0602    -3.7274     3.1616 N.2     
  26 C26            0.2413    -3.4825     1.9157 C.2     
  27 C27           -5.9083     6.1713     0.0791 C.3     
  28 F28            1.4728    -1.5698    -0.3591 F       
  29 C29           -2.1385    -3.8107     4.6173 C.3     
  30 C30           -3.0704    -5.0159     4.4764 C.3     
  31 C31           -1.1455    -4.0638     5.7534 C.3     
  32 C32           -0.2621    -2.8292     5.9432 C.3     
  33 F33           -2.3291    -6.1351     4.0827 F       
  34 F34           -3.6878    -5.2741     5.7050 F       
  35 F35           -4.0465    -4.7405     3.5128 F       
  36 O36           -2.9098    -2.6438     4.9100 O.3     
  37 F37           -2.3429     3.0982     1.3685 F       
  38 H38            0.8713     4.4024    -0.9698 H       
  39 H39           -2.9877    -1.0333    -0.3346 H       
  40 H40           -2.8303     1.3839    -0.6124 H       
  41 H41           -1.3609     4.2947    -2.8860 H       
  42 H42           -3.3468     5.7371    -3.0095 H       
  43 H43            4.1630     1.2966    -0.7058 H       
  44 H44            5.1712     2.6321    -0.8572 H       
  45 H45           -1.9683    -3.1684    -0.5542 H       
  46 H46           -0.2055    -3.3426    -0.7287 H       
  47 H47           -4.3781     4.6873     1.0049 H       
  48 H48           -2.9707    -3.0900     1.9370 H       
  49 H49            1.2338    -3.5113     1.4908 H       
  50 H50           -6.7460     6.8417    -0.1130 H       
  51 H51           -6.2859     5.1767     0.3164 H       
  52 H52           -5.3260     6.5490     0.9195 H       
  53 H53           -1.6915    -4.2651     6.6751 H       
  54 H54           -0.5214    -4.9226     5.5058 H       
  55 H55            0.4077    -2.9881     6.7883 H       
  56 H56            0.3255    -2.6606     5.0407 H       
  57 H57           -0.8900    -1.9593     6.1357 H       
  58 H58           -2.3828    -1.8396     5.0128 H       
@<TRIPOS>BOND
   1    1    7 ar
   2    1    6 ar
   3    1    2 ar
   4    2    3 ar
   5    2   10 ar
   6    3   11 1
   7    3    4 ar
   8    4    5 ar
   9    4   38 1
  10    5   15 1
  11    5    6 ar
  12    7   28 1
  13    7    8 ar
  14    8    9 ar
  15    8   18 1
  16    9   10 ar
  17    9   39 1
  18   10   40 1
  19   11   12 ar
  20   11   14 ar
  21   12   13 ar
  22   12   41 1
  23   13   19 ar
  24   13   42 1
  25   14   37 1
  26   14   20 ar
  27   15   16 am
  28   15   17 2
  29   16   43 1
  30   16   44 1
  31   18   22 1
  32   18   45 1
  33   18   46 1
  34   19   20 ar
  35   19   21 1
  36   20   47 1
  37   21   27 1
  38   22   23 1
  39   22   26 1
  40   23   24 2
  41   23   48 1
  42   24   25 1
  43   24   29 1
  44   25   26 2
  45   26   49 1
  46   27   50 1
  47   27   51 1
  48   27   52 1
  49   29   30 1
  50   29   31 1
  51   29   36 1
  52   30   33 1
  53   30   34 1
  54   30   35 1
  55   31   32 1
  56   31   53 1
  57   31   54 1
  58   32   55 1
  59   32   56 1
  60   32   57 1
  61   36   58 1

#	End of record

