#	Name: ASD03731310
#	Creating user name:	WinNT
#	Creation time:	15. 06. 2019 20:45

#	Modifying user name:	WinNT
#	Modification time:	15. 06. 2019 20:45

#	Program:	/corina/corina34_cracker 3.40 0067  02.08.2006

@<TRIPOS>MOLECULE
ASD03731310
  62   68    0    0    0
SMALL
NO_CHARGES


@<TRIPOS>ATOM
   1 C1            -0.0183     1.4732     0.0189 C.2     
   2 C2             0.0010    -0.0045    -0.0105 C.ar    
   3 C3             1.2172    -0.6897    -0.0168 C.ar    
   4 C4             1.2281    -2.0689    -0.0444 C.ar    
   5 C5             0.0373    -2.7730    -0.0662 C.ar    
   6 C6            -1.1716    -2.1000    -0.0606 C.ar    
   7 C7            -1.1968    -0.7211    -0.0264 C.ar    
   8 O8             1.0264     2.0945     0.0377 O.2     
   9 N9            -1.1942     2.1319     0.0193 N.am    
  10 C10            0.0570    -4.2795    -0.0968 C.3     
  11 O11           -2.1587    -1.6256     6.2070 O.3     
  12 C12           -2.4089    -1.7317     7.6210 C.3     
  13 O13           -2.9107    -3.0718     7.7802 O.3     
  14 C14           -2.3692    -3.7897     6.7524 C.ar    
  15 C15           -1.9079    -2.8999     5.7850 C.ar    
  16 C16           -2.2295    -5.1526     6.5615 C.ar    
  17 C17           -1.6311    -5.6449     5.4055 C.ar    
  18 C18           -1.1817    -4.7465     4.4425 C.ar    
  19 C19           -1.3140    -3.3868     4.6327 C.ar    
  20 O20           -1.3832    -6.9334     5.0330 O.3     
  21 C21           -0.6183    -5.5712     3.3163 C.3     
  22 C22           -1.1490    -6.9805     3.6123 C.3     
  23 N23            0.0547    -4.7959     1.2742 N.am    
  24 C24           -1.0648    -5.0760     1.9709 C.2     
  25 C25            0.8806    -5.5347     3.2763 C.ar    
  26 C26            1.8648    -5.8602     4.1828 C.ar    
  27 C27            3.1975    -5.7143     3.8410 C.ar    
  28 C28            3.5386    -5.2402     2.5873 C.ar    
  29 C29            2.5564    -4.9119     1.6762 C.ar    
  30 C30            1.2124    -5.0560     2.0115 C.ar    
  31 O31           -2.2084    -4.9527     1.5862 O.2     
  32 C32           -1.2149     3.5268     0.1326 C.ar    
  33 C33           -2.3323     4.1671     0.6587 C.ar    
  34 C34           -2.3483     5.5452     0.7692 C.ar    
  35 C35           -1.2553     6.2857     0.3570 C.ar    
  36 C36           -0.1441     5.6515    -0.1664 C.ar    
  37 C37           -0.1185     4.2741    -0.2742 C.ar    
  38 C38           -1.2760     7.7877     0.4784 C.3     
  39 F39           -3.4002     3.4436     1.0604 F       
  40 H40            2.1474    -0.1413    -0.0005 H       
  41 H41            2.1684    -2.6002    -0.0493 H       
  42 H42           -2.0976    -2.6555    -0.0781 H       
  43 H43           -2.1411    -0.1971    -0.0172 H       
  44 H44           -2.0261     1.6392    -0.0590 H       
  45 H45           -0.8249    -4.6438    -0.6237 H       
  46 H46            0.9549    -4.6208    -0.6120 H       
  47 H47           -1.4852    -1.5993     8.1843 H       
  48 H48           -3.1569    -1.0030     7.9333 H       
  49 H49           -2.5872    -5.8392     7.3145 H       
  50 H50           -0.9539    -2.7002     3.8809 H       
  51 H51           -0.4012    -7.7350     3.3681 H       
  52 H52           -2.0779    -7.1657     3.0728 H       
  53 H53            1.5961    -6.2300     5.1613 H       
  54 H54            3.9696    -5.9703     4.5513 H       
  55 H55            4.5789    -5.1262     2.3205 H       
  56 H56            2.8307    -4.5418     0.6993 H       
  57 H57           -3.2150     6.0437     1.1774 H       
  58 H58            0.7072     6.2333    -0.4878 H       
  59 H59            0.7522     3.7798    -0.6792 H       
  60 H60           -0.8777     8.0792     1.4503 H       
  61 H61           -0.6641     8.2245    -0.3109 H       
  62 H62           -2.3011     8.1458     0.3836 H       
@<TRIPOS>BOND
   1    1    2 1
   2    1    8 2
   3    1    9 am
   4    2    3 ar
   5    2    7 ar
   6    3    4 ar
   7    3   40 1
   8    4    5 ar
   9    4   41 1
  10    5    6 ar
  11    5   10 1
  12    6    7 ar
  13    6   42 1
  14    7   43 1
  15    9   32 1
  16    9   44 1
  17   10   23 1
  18   10   45 1
  19   10   46 1
  20   11   12 1
  21   11   15 1
  22   12   13 1
  23   12   47 1
  24   12   48 1
  25   13   14 1
  26   14   15 ar
  27   14   16 ar
  28   15   19 ar
  29   16   17 ar
  30   16   49 1
  31   17   18 ar
  32   17   20 1
  33   18   19 ar
  34   18   21 1
  35   19   50 1
  36   20   22 1
  37   21   22 1
  38   21   24 1
  39   21   25 1
  40   22   51 1
  41   22   52 1
  42   23   24 am
  43   23   30 1
  44   24   31 2
  45   25   26 ar
  46   25   30 ar
  47   26   27 ar
  48   26   53 1
  49   27   28 ar
  50   27   54 1
  51   28   29 ar
  52   28   55 1
  53   29   30 ar
  54   29   56 1
  55   32   33 ar
  56   32   37 ar
  57   33   34 ar
  58   33   39 1
  59   34   35 ar
  60   34   57 1
  61   35   36 ar
  62   35   38 1
  63   36   37 ar
  64   36   58 1
  65   37   59 1
  66   38   60 1
  67   38   61 1
  68   38   62 1

#	End of record

