#	Name: ASD05060046
#	Creating user name:	WinNT
#	Creation time:	15. 06. 2019 20:56

#	Modifying user name:	WinNT
#	Modification time:	15. 06. 2019 20:56

#	Program:	/corina/corina34_cracker 3.40 0067  02.08.2006

@<TRIPOS>MOLECULE
ASD05060046
  38   40    0    0    0
SMALL
NO_CHARGES


@<TRIPOS>ATOM
   1 C1            -0.0440     1.2058    -0.0573 C.2     
   2 N2             0.0444    -0.0946     0.0049 N.2     
   3 C3             1.3382    -0.4548     0.0416 C.2     
   4 C4             2.0909     0.7114    -0.0015 C.2     
   5 N5             1.1902     1.7443    -0.0636 N.pl3   
   6 C6             1.8627    -1.8348     0.1149 C.2     
   7 O7             3.0623    -2.0284     0.1427 O.2     
   8 N8             1.0106    -2.8785     0.1509 N.am    
   9 C9             1.5024    -4.1809     0.1046 C.ar    
  10 C10            0.6295    -5.2528     0.2572 C.ar    
  11 C11            1.1312    -6.5412     0.2086 C.ar    
  12 C12            2.4941    -6.7143     0.0083 C.ar    
  13 C13            3.3027    -5.6043    -0.1354 C.ar    
  14 N14            2.7953    -4.3872    -0.0896 N.ar    
  15 C15            3.5597     0.8178     0.0161 C.2     
  16 O16            4.1650     1.0470    -1.0135 O.2     
  17 N17            4.2329     0.6612     1.1731 N.am    
  18 C18            5.6879     0.8678     1.2338 C.3     
  19 C19            5.9953     1.8294     2.3867 C.3     
  20 N20            5.3885     1.3170     3.6225 N.3     
  21 C21            3.9244     1.2639     3.5151 C.3     
  22 C22            3.5313     0.2851     2.4098 C.3     
  23 H23           -0.9668     1.7651    -0.1018 H       
  24 H24            1.4034     2.6897    -0.1046 H       
  25 H25            0.0550    -2.7226     0.2091 H       
  26 H26           -0.4256    -5.0817     0.4118 H       
  27 H27            0.4774    -7.3931     0.3243 H       
  28 H28            2.9176    -7.7069    -0.0342 H       
  29 H29            4.3635    -5.7341    -0.2910 H       
  30 H30            6.1861    -0.0856     1.4095 H       
  31 H31            6.0360     1.2986     0.2950 H       
  32 H32            7.0746     1.9080     2.5168 H       
  33 H33            5.5833     2.8127     2.1598 H       
  34 H34            5.7665     0.4129     3.8630 H       
  35 H35            3.5020     0.9323     4.4636 H       
  36 H36            3.5413     2.2551     3.2725 H       
  37 H37            2.4543     0.3307     2.2481 H       
  38 H38            3.8182    -0.7254     2.7007 H       
@<TRIPOS>BOND
   1    1    2 2
   2    1    5 1
   3    1   23 1
   4    2    3 1
   5    3    4 2
   6    3    6 1
   7    4    5 1
   8    4   15 1
   9    5   24 1
  10    6    7 2
  11    6    8 am
  12    8    9 1
  13    8   25 1
  14    9   10 ar
  15    9   14 ar
  16   10   11 ar
  17   10   26 1
  18   11   12 ar
  19   11   27 1
  20   12   13 ar
  21   12   28 1
  22   13   14 ar
  23   13   29 1
  24   15   16 2
  25   15   17 am
  26   17   18 1
  27   17   22 1
  28   18   19 1
  29   18   30 1
  30   18   31 1
  31   19   20 1
  32   19   32 1
  33   19   33 1
  34   20   21 1
  35   20   34 1
  36   21   22 1
  37   21   35 1
  38   21   36 1
  39   22   37 1
  40   22   38 1

#	End of record

