#	Name: ASD01884566
#	Creating user name:	WinNT
#	Creation time:	15. 06. 2019 19:48

#	Modifying user name:	WinNT
#	Modification time:	15. 06. 2019 19:48

#	Program:	/corina/corina34_cracker 3.40 0067  02.08.2006

@<TRIPOS>MOLECULE
ASD01884566
  66   70    0    0    0
SMALL
NO_CHARGES


@<TRIPOS>ATOM
   1 C1             1.2434     1.6430    -0.2001 C.2     
   2 C2             1.4790     0.2770    -0.3343 C.2     
   3 C3             0.4195    -0.5603    -0.6860 C.2     
   4 C4            -0.8179    -0.0432    -0.8926 C.2     
   5 N5            -1.0547     1.2849    -0.7639 N.am    
   6 C6            -0.0692     2.1360    -0.4207 C.2     
   7 O7            -0.3015     3.3275    -0.3095 O.2     
   8 C8            -2.4055     1.8022    -0.9964 C.3     
   9 C9            -3.1773     1.7913     0.2979 C.ar    
  10 C10           -3.1473     2.8955     1.1293 C.ar    
  11 C11           -3.8550     2.8868     2.3162 C.ar    
  12 C12           -4.5943     1.7717     2.6727 C.ar    
  13 C13           -4.6236     0.6664     1.8393 C.ar    
  14 C14           -3.9193     0.6794     0.6503 C.ar    
  15 F15           -5.2862     1.7620     3.8331 F       
  16 C16            2.3053     2.5336     0.1599 C.1     
  17 N17            3.1477     3.2402     0.4455 N.1     
  18 C18            2.8569    -0.2880    -0.1038 C.3     
  19 N19            2.9651    -0.7650     1.2814 N.3     
  20 C20            4.2023    -1.5332     1.4788 C.3     
  21 C21            4.3160    -1.9431     2.9490 C.3     
  22 N22            3.1394    -2.7391     3.3254 N.3     
  23 C23            1.9023    -1.9709     3.1280 C.3     
  24 C24            1.7886    -1.5610     1.6578 C.3     
  25 C25            3.2477    -3.2160     4.7106 C.3     
  26 C26            3.1003    -2.0335     5.6701 C.3     
  27 C27            2.1422    -4.2373     4.9862 C.3     
  28 C28            3.4143    -2.4833     7.0737 C.ar    
  29 C29            4.6798    -2.9426     7.3848 C.ar    
  30 C30            4.9680    -3.3559     8.6747 C.ar    
  31 C31            3.9877    -3.3082     9.6511 C.ar    
  32 C32            2.7226    -2.8483     9.3375 C.ar    
  33 C33            2.4376    -2.4308     8.0510 C.ar    
  34 F34            6.2049    -3.8057     8.9800 F       
  35 C35            2.1130    -4.8908     6.3693 C.3     
  36 C36            1.0572    -3.8495     5.9927 C.3     
  37 H37            0.5847    -1.6221    -0.7943 H       
  38 H38           -1.6290    -0.7022    -1.1650 H       
  39 H39           -2.3437     2.8228    -1.3740 H       
  40 H40           -2.9141     1.1742    -1.7279 H       
  41 H41           -2.5703     3.7650     0.8512 H       
  42 H42           -3.8311     3.7494     2.9657 H       
  43 H43           -5.1999    -0.2039     2.1164 H       
  44 H44           -3.9420    -0.1827     0.0001 H       
  45 H45            3.0282    -1.1187    -0.7884 H       
  46 H46            3.6020     0.4878    -0.2802 H       
  47 H47            4.1799    -2.4255     0.8532 H       
  48 H48            5.0597    -0.9183     1.2053 H       
  49 H49            5.2183    -2.5378     3.0920 H       
  50 H50            4.3658    -1.0505     3.5726 H       
  51 H51            1.0449    -2.5858     3.4015 H       
  52 H52            1.9247    -1.0786     3.7536 H       
  53 H53            0.8863    -0.9663     1.5148 H       
  54 H54            1.7388    -2.4536     1.0342 H       
  55 H55            4.2205    -3.6849     4.8585 H       
  56 H56            3.7904    -1.2415     5.3794 H       
  57 H57            2.0779    -1.6576     5.6292 H       
  58 H58            1.8438    -4.8484     4.1344 H       
  59 H59            5.4436    -2.9797     6.6223 H       
  60 H60            4.2113    -3.6306    10.6573 H       
  61 H61            1.9576    -2.8111    10.0990 H       
  62 H62            1.4489    -2.0712     7.8069 H       
  63 H63            1.7950    -5.9317     6.4275 H       
  64 H64            2.8813    -4.5931     7.0829 H       
  65 H65            1.1308    -2.8668     6.4586 H       
  66 H66            0.0445    -4.2054     5.8032 H       
@<TRIPOS>BOND
   1    1    2 2
   2    1   16 1
   3    1    6 1
   4    2    3 1
   5    2   18 1
   6    3    4 2
   7    3   37 1
   8    4    5 1
   9    4   38 1
  10    5    8 1
  11    5    6 am
  12    6    7 2
  13    8    9 1
  14    8   39 1
  15    8   40 1
  16    9   10 ar
  17    9   14 ar
  18   10   11 ar
  19   10   41 1
  20   11   12 ar
  21   11   42 1
  22   12   13 ar
  23   12   15 1
  24   13   14 ar
  25   13   43 1
  26   14   44 1
  27   16   17 3
  28   18   19 1
  29   18   45 1
  30   18   46 1
  31   19   20 1
  32   19   24 1
  33   20   21 1
  34   20   47 1
  35   20   48 1
  36   21   22 1
  37   21   49 1
  38   21   50 1
  39   22   23 1
  40   22   25 1
  41   23   24 1
  42   23   51 1
  43   23   52 1
  44   24   53 1
  45   24   54 1
  46   25   26 1
  47   25   27 1
  48   25   55 1
  49   26   28 1
  50   26   56 1
  51   26   57 1
  52   27   35 1
  53   27   36 1
  54   27   58 1
  55   28   29 ar
  56   28   33 ar
  57   29   30 ar
  58   29   59 1
  59   30   31 ar
  60   30   34 1
  61   31   32 ar
  62   31   60 1
  63   32   33 ar
  64   32   61 1
  65   33   62 1
  66   35   36 1
  67   35   63 1
  68   35   64 1
  69   36   65 1
  70   36   66 1

#	End of record

