#	Name: ASD01884539
#	Creating user name:	WinNT
#	Creation time:	15. 06. 2019 19:48

#	Modifying user name:	WinNT
#	Modification time:	15. 06. 2019 19:48

#	Program:	/corina/corina34_cracker 3.40 0067  02.08.2006

@<TRIPOS>MOLECULE
ASD01884539
  39   41    0    0    0
SMALL
NO_CHARGES


@<TRIPOS>ATOM
   1 C1            -0.0790     1.7352    -0.0498 C.2     
   2 C2            -0.2002     0.3788    -0.0400 C.2     
   3 C3             0.9664    -0.4159    -0.0235 C.2     
   4 C4             2.1927     0.1831    -0.0176 C.2     
   5 N5             2.2994     1.5351    -0.0271 N.am    
   6 C6             1.2022     2.3145    -0.0433 C.2     
   7 O7             1.3198     3.5293    -0.0520 O.2     
   8 C8             3.6266     2.1554    -0.0196 C.3     
   9 C9             4.0065     2.5118     1.3945 C.ar    
  10 C10            0.8598    -1.8960    -0.0121 C.ar    
  11 C11            0.2920    -2.5467     1.0817 C.ar    
  12 C12            1.3221    -2.6377    -1.0976 C.ar    
  13 C13            1.2217    -4.0133    -1.0841 C.ar    
  14 C14            0.6605    -4.6590     0.0091 C.ar    
  15 C15            0.1943    -3.9226     1.0895 C.ar    
  16 O16            0.5621    -6.0144     0.0192 O.3     
  17 C17           -0.0258    -6.6136     1.1756 C.3     
  18 C18            4.8686     1.8710     3.5363 C.ar    
  19 C19            4.7038     3.1660     3.9895 C.ar    
  20 C20            4.1857     4.1327     3.1476 C.ar    
  21 C21            3.8368     3.8056     1.8508 C.ar    
  22 C22            4.5199     1.5430     2.2380 C.ar    
  23 Cl23           4.7261    -0.0838     1.6681 Cl      
  24 H24           -0.9593     2.3605    -0.0669 H       
  25 H25           -1.1765    -0.0830    -0.0444 H       
  26 H26            3.0854    -0.4245    -0.0050 H       
  27 H27            4.3568     1.4561    -0.4267 H       
  28 H28            3.6090     3.0586    -0.6296 H       
  29 H29           -0.0709    -1.9743     1.9226 H       
  30 H30            1.7582    -2.1359    -1.9487 H       
  31 H31            1.5798    -4.5886    -1.9250 H       
  32 H32           -0.2415    -4.4277     1.9388 H       
  33 H33            0.5618    -6.3560     2.0568 H       
  34 H34           -1.0444    -6.2451     1.2977 H       
  35 H35           -0.0434    -7.6967     1.0545 H       
  36 H36            5.2736     1.1160     4.1939 H       
  37 H37            4.9759     3.4221     5.0028 H       
  38 H38            4.0568     5.1446     3.5024 H       
  39 H39            3.4319     4.5610     1.1938 H       
@<TRIPOS>BOND
   1    1    2 2
   2    1    6 1
   3    1   24 1
   4    2    3 1
   5    2   25 1
   6    3    4 2
   7    3   10 1
   8    4    5 1
   9    4   26 1
  10    5    6 am
  11    5    8 1
  12    6    7 2
  13    8    9 1
  14    8   27 1
  15    8   28 1
  16    9   22 ar
  17    9   21 ar
  18   10   11 ar
  19   10   12 ar
  20   11   15 ar
  21   11   29 1
  22   12   13 ar
  23   12   30 1
  24   13   14 ar
  25   13   31 1
  26   14   15 ar
  27   14   16 1
  28   15   32 1
  29   16   17 1
  30   17   33 1
  31   17   34 1
  32   17   35 1
  33   18   19 ar
  34   18   22 ar
  35   18   36 1
  36   19   20 ar
  37   19   37 1
  38   20   21 ar
  39   20   38 1
  40   21   39 1
  41   22   23 1

#	End of record

