#	Name: ASD00840338
#	Creating user name:	WinNT
#	Creation time:	15. 06. 2019 18:38

#	Modifying user name:	WinNT
#	Modification time:	15. 06. 2019 18:38

#	Program:	/corina/corina34_cracker 3.40 0067  02.08.2006

@<TRIPOS>MOLECULE
ASD00840338
  80   85    0    0    0
SMALL
NO_CHARGES


@<TRIPOS>ATOM
   1 F1            -0.1182    -3.1667     4.7124 F       
   2 N2            -0.0051     1.3211     0.0355 N.ar    
   3 C3             0.0089    -0.0012     0.0185 C.ar    
   4 C4             1.2116    -0.6961    -0.0015 C.ar    
   5 C5             2.3994     0.0138    -0.0035 C.ar    
   6 C6             2.3418     1.4008     0.0147 C.ar    
   7 C7             1.1108     2.0254     0.0341 C.ar    
   8 C8             1.2227    -2.2030    -0.0203 C.3     
   9 C9             0.4753    -2.7238    -1.2294 C.2     
  10 N10            2.5990    -2.7050    -0.0123 N.am    
  11 C11            3.4466    -2.3635    -1.0029 C.2     
  12 N12            4.7401    -2.7371    -0.9417 N.am    
  13 O13            3.0444    -1.7184    -1.9518 O.2     
  14 C14            5.2677    -3.4158     0.2497 C.3     
  15 C15            6.4985    -2.6518     0.7480 C.3     
  16 C16            7.5064    -2.5150    -0.3954 C.3     
  17 C17            6.8758    -1.7203    -1.5412 C.3     
  18 C18            5.6479    -2.4788    -2.0677 C.3     
  19 C19            8.7519    -1.7826     0.1079 C.3     
  20 C20            9.3850    -2.5774     1.2533 C.3     
  21 C21           10.6633    -1.8719     1.7117 C.3     
  22 N22           11.5998    -1.7722     0.5850 N.3     
  23 C23           11.0320    -0.9732    -0.5084 C.3     
  24 C24            9.7647    -1.6518    -1.0330 C.3     
  25 H25           12.4871    -1.3964     0.8845 H       
  26 O26            0.7561    -2.5218    -2.3919 O.2     
  27 N27           -0.5572    -3.4524    -0.7729 N.am    
  28 C28            0.4486    -2.7529     1.1557 C.ar    
  29 C29           -0.6015    -3.4897     0.6224 C.ar    
  30 C30            0.6134    -2.6428     2.5180 C.ar    
  31 C31           -0.2757    -3.2723     3.3747 C.ar    
  32 C32           -1.3270    -4.0099     2.8545 C.ar    
  33 C33           -1.4922    -4.1203     1.4881 C.ar    
  34 Cl34          -2.4418    -4.7992     3.9259 Cl      
  35 C35           -1.0286    -5.8352    -2.0669 C.ar    
  36 C36           -1.3611    -6.8800    -1.2250 C.ar    
  37 C37           -0.2117    -6.0608    -3.1590 C.ar    
  38 C38            0.2727    -7.3311    -3.4092 C.ar    
  39 C39           -0.0595    -8.3757    -2.5671 C.ar    
  40 C40           -0.8764    -8.1502    -1.4749 C.ar    
  41 H41            0.3189    -9.3682    -2.7626 H       
  42 H42           -1.9993    -6.7037    -0.3717 H       
  43 S43           -1.6518    -4.2175    -1.7521 S.o2    
  44 O44           -2.8325    -4.3857    -0.9795 O.2     
  45 O45           -1.6278    -3.5293    -2.9951 O.2     
  46 O46           -1.1626    -0.6857     0.0211 O.3     
  47 C47           -3.5735    -0.8519     0.0423 C.3     
  48 C48           -2.3649     0.0863     0.0426 C.3     
  49 H49            3.3496    -0.4994    -0.0185 H       
  50 H50            3.2502     1.9848     0.0141 H       
  51 H51            1.0605     3.1041     0.0480 H       
  52 H52            2.9002    -3.2831     0.7060 H       
  53 H53            4.5061    -3.4301     1.0294 H       
  54 H54            5.5504    -4.4369    -0.0065 H       
  55 H55            6.1982    -1.6610     1.0889 H       
  56 H56            6.9561    -3.1977     1.5730 H       
  57 H57            7.7875    -3.5058    -0.7523 H       
  58 H58            6.5720    -0.7382    -1.1788 H       
  59 H59            7.6020    -1.6031    -2.3456 H       
  60 H60            5.9643    -3.4221    -2.5128 H       
  61 H61            5.1371    -1.8726    -2.8158 H       
  62 H62            8.4724    -0.7909     0.4636 H       
  63 H63            8.6839    -2.6373     2.0857 H       
  64 H64            9.6278    -3.5824     0.9082 H       
  65 H65           10.4179    -0.8720     2.0695 H       
  66 H66           11.1243    -2.4429     2.5177 H       
  67 H67           10.7849     0.0225    -0.1401 H       
  68 H68           11.7607    -0.8915    -1.3149 H       
  69 H69           10.0134    -2.6423    -1.4141 H       
  70 H70            9.3348    -1.0505    -1.8341 H       
  71 H71            1.4346    -2.0670     2.9186 H       
  72 H72           -2.3139    -4.6969     1.0896 H       
  73 H73            0.0479    -5.2446    -3.8170 H       
  74 H74            0.9103    -7.5074    -4.2629 H       
  75 H75           -1.1362    -8.9664    -0.8172 H       
  76 H76           -3.5540    -1.4692    -0.8558 H       
  77 H77           -3.5368    -1.4919     0.9239 H       
  78 H78           -4.4906    -0.2631     0.0587 H       
  79 H79           -2.3844     0.7036     0.9407 H       
  80 H80           -2.4016     0.7263    -0.8390 H       
@<TRIPOS>BOND
   1    1   31 1
   2    2    3 ar
   3    2    7 ar
   4    3    4 ar
   5    3   46 1
   6    4    5 ar
   7    4    8 1
   8    5    6 ar
   9    5   49 1
  10    6    7 ar
  11    6   50 1
  12    7   51 1
  13    8    9 1
  14    8   10 1
  15    8   28 1
  16    9   26 2
  17    9   27 am
  18   10   11 am
  19   10   52 1
  20   11   12 am
  21   11   13 2
  22   12   14 1
  23   12   18 1
  24   14   15 1
  25   14   53 1
  26   14   54 1
  27   15   16 1
  28   15   55 1
  29   15   56 1
  30   16   17 1
  31   16   19 1
  32   16   57 1
  33   17   18 1
  34   17   58 1
  35   17   59 1
  36   18   60 1
  37   18   61 1
  38   19   20 1
  39   19   24 1
  40   19   62 1
  41   20   21 1
  42   20   63 1
  43   20   64 1
  44   21   22 1
  45   21   65 1
  46   21   66 1
  47   22   23 1
  48   22   25 1
  49   23   24 1
  50   23   67 1
  51   23   68 1
  52   24   69 1
  53   24   70 1
  54   27   43 am
  55   27   29 1
  56   28   29 ar
  57   28   30 ar
  58   29   33 ar
  59   30   31 ar
  60   30   71 1
  61   31   32 ar
  62   32   33 ar
  63   32   34 1
  64   33   72 1
  65   35   36 ar
  66   35   37 ar
  67   35   43 1
  68   36   42 1
  69   36   40 ar
  70   37   38 ar
  71   37   73 1
  72   38   39 ar
  73   38   74 1
  74   39   40 ar
  75   39   41 1
  76   40   75 1
  77   43   44 2
  78   43   45 2
  79   46   48 1
  80   47   48 1
  81   47   76 1
  82   47   77 1
  83   47   78 1
  84   48   79 1
  85   48   80 1

#	End of record

