#	Name: ASD03091375
#	Creating user name:	WinNT
#	Creation time:	15. 06. 2019 20:30

#	Modifying user name:	WinNT
#	Modification time:	15. 06. 2019 20:30

#	Program:	/corina/corina34_cracker 3.40 0067  02.08.2006

@<TRIPOS>MOLECULE
ASD03091375
  41   44    0    0    0
SMALL
NO_CHARGES


@<TRIPOS>ATOM
   1 N1            -0.3206     1.8164     1.0390 N.am    
   2 C2            -0.5903     0.8952     2.0006 C.2     
   3 N3            -1.6671     0.1700     2.0120 N.2     
   4 C4            -2.6124     0.2866     1.0452 C.ar    
   5 C5            -2.4158     1.2216     0.0025 C.ar    
   6 C6            -1.1897     2.0287     0.0236 C.2     
   7 O7            -0.9594     2.8514    -0.8439 O.2     
   8 C8            -3.7683    -0.4914     1.0556 C.ar    
   9 C9            -4.7042    -0.3360     0.0460 C.ar    
  10 C10           -4.4988     0.5908    -0.9784 C.ar    
  11 C11           -3.3721     1.3609    -1.0038 C.ar    
  12 N12           -5.8600    -1.1113     0.0523 N.3     
  13 C13            0.9206     2.5919     1.1052 C.3     
  14 C14           -5.8116    -2.1189     1.1185 C.3     
  15 C15           -7.0576    -0.2704     0.1880 C.3     
  16 C16           -8.1894    -0.8163    -0.6696 C.3     
  17 C17           -8.8167    -2.0759    -0.1072 C.3     
  18 N18           -8.2522    -2.4219     1.2052 N.3     
  19 C19           -6.9630    -3.1087     1.0329 C.3     
  20 C20           -7.4163    -0.1487     1.6577 C.3     
  21 C21           -8.2681    -1.3133     2.1353 C.3     
  22 H22            0.1278     0.7592     2.7958 H       
  23 H23           -3.9333    -1.2102     1.8446 H       
  24 H24           -5.2384     0.6991    -1.7580 H       
  25 H25           -3.2216     2.0753    -1.7997 H       
  26 H26            1.4897     2.2923     1.9852 H       
  27 H27            1.5129     2.4068     0.2091 H       
  28 H28            0.6826     3.6536     1.1706 H       
  29 H29           -4.8708    -2.6646     1.0461 H       
  30 H30           -5.8512    -1.6138     2.0836 H       
  31 H31           -6.8109     0.7282    -0.1727 H       
  32 H32           -8.9608    -0.0514    -0.7585 H       
  33 H33           -7.8004    -1.0338    -1.6644 H       
  34 H34           -9.8908    -1.9227    -0.0033 H       
  35 H35           -8.6413    -2.9001    -0.7985 H       
  36 H36           -6.9442    -3.5981     0.0592 H       
  37 H37           -6.8493    -3.8603     1.8141 H       
  38 H38           -6.4986    -0.1167     2.2449 H       
  39 H39           -7.9665     0.7795     1.8124 H       
  40 H40           -9.2956    -0.9717     2.2607 H       
  41 H41           -7.8910    -1.6551     3.0992 H       
@<TRIPOS>BOND
   1    1    2 1
   2    1   13 1
   3    1    6 am
   4    2    3 2
   5    2   22 1
   6    3    4 1
   7    4    5 ar
   8    4    8 ar
   9    5    6 1
  10    5   11 ar
  11    6    7 2
  12    8    9 ar
  13    8   23 1
  14    9   10 ar
  15    9   12 1
  16   10   11 ar
  17   10   24 1
  18   11   25 1
  19   12   15 1
  20   12   14 1
  21   13   26 1
  22   13   27 1
  23   13   28 1
  24   14   19 1
  25   14   29 1
  26   14   30 1
  27   15   16 1
  28   15   20 1
  29   15   31 1
  30   16   17 1
  31   16   32 1
  32   16   33 1
  33   17   18 1
  34   17   34 1
  35   17   35 1
  36   18   19 1
  37   18   21 1
  38   19   36 1
  39   19   37 1
  40   20   21 1
  41   20   38 1
  42   20   39 1
  43   21   40 1
  44   21   41 1

#	End of record

