#	Name: ASD03180041
#	Creating user name:	WinNT
#	Creation time:	15. 06. 2019 20:33

#	Modifying user name:	WinNT
#	Modification time:	15. 06. 2019 20:33

#	Program:	/corina/corina34_cracker 3.40 0067  02.08.2006

@<TRIPOS>MOLECULE
ASD03180041
  32   34    0    0    0
SMALL
NO_CHARGES


@<TRIPOS>ATOM
   1 C1             0.3986     1.0214    -1.4889 C.ar    
   2 C2             0.0898    -0.0500    -0.6710 C.ar    
   3 C3             0.9375    -0.4014     0.3636 C.ar    
   4 C4             2.0978     0.3182     0.5828 C.ar    
   5 C5             2.4107     1.3959    -0.2389 C.ar    
   6 C6             1.5560     1.7449    -1.2759 C.ar    
   7 N7             3.5833     2.1270    -0.0204 N.pl3   
   8 C8             3.5664     3.5094    -0.1179 C.2     
   9 C9             4.3996     5.5890    -0.1633 C.2     
  10 N10            4.6090     4.2780    -0.0471 N.2     
  11 S11            2.1272     4.4934    -0.3646 S.3     
  12 C12            3.1161     5.9515    -0.3435 C.2     
  13 C13            5.5000     6.5755    -0.1009 C.2     
  14 S14            5.3357     8.3243    -0.2409 S.3     
  15 C15            7.0249     8.5080    -0.0527 C.2     
  16 N16            7.5887     7.3565     0.0937 N.2     
  17 C17            6.8088     6.2971     0.0794 C.2     
  18 C18            7.7524     9.8277    -0.0576 C.3     
  19 C19            7.3317     4.8935     0.2454 C.3     
  20 F20            2.9258    -0.0248     1.5938 F       
  21 H21           -0.2639     1.2902    -2.2983 H       
  22 H22           -0.8159    -0.6134    -0.8403 H       
  23 H23            0.6929    -1.2383     1.0009 H       
  24 H24            1.7959     2.5812    -1.9157 H       
  25 H25            4.4082     1.6663     0.1993 H       
  26 H26            2.7544     6.9628    -0.4567 H       
  27 H27            7.8067    10.2165     0.9593 H       
  28 H28            8.7607     9.6853    -0.4465 H       
  29 H29            7.2161    10.5360    -0.6892 H       
  30 H30            7.5822     4.4811    -0.7320 H       
  31 H31            8.2233     4.9097     0.8722 H       
  32 H32            6.5679     4.2745     0.7160 H       
@<TRIPOS>BOND
   1    1    2 ar
   2    1    6 ar
   3    1   21 1
   4    2    3 ar
   5    2   22 1
   6    3    4 ar
   7    3   23 1
   8    4    5 ar
   9    4   20 1
  10    5    6 ar
  11    5    7 1
  12    6   24 1
  13    7    8 1
  14    7   25 1
  15    8   11 1
  16    8   10 2
  17    9   10 1
  18    9   12 2
  19    9   13 1
  20   11   12 1
  21   12   26 1
  22   13   14 1
  23   13   17 2
  24   14   15 1
  25   15   16 2
  26   15   18 1
  27   16   17 1
  28   17   19 1
  29   18   27 1
  30   18   28 1
  31   18   29 1
  32   19   30 1
  33   19   31 1
  34   19   32 1

#	End of record

