#	Name: ASD06170181
#	Creating user name:	WinNT
#	Creation time:	15. 06. 2019 21:05

#	Modifying user name:	WinNT
#	Modification time:	15. 06. 2019 21:05

#	Program:	/corina/corina34_cracker 3.40 0067  02.08.2006

@<TRIPOS>MOLECULE
ASD06170181
  62   66    0    0    0
SMALL
NO_CHARGES


@<TRIPOS>ATOM
   1 C1            -0.1834     1.5019    -0.5660 C.2     
   2 C2            -0.1635    -0.0049    -0.5691 C.3     
   3 C3            -1.4075    -0.5299    -1.2886 C.3     
   4 O4             0.7171     2.1214    -1.0919 O.2     
   5 N5            -1.2045     2.1612     0.0164 N.am    
   6 C6             1.3553    -0.2147    -2.5430 C.2     
   7 N7             1.0375    -0.4760    -1.2633 N.am    
   8 C8             2.0921    -1.3105    -0.6763 C.3     
   9 C9             3.1103    -1.5329    -1.7666 C.ar    
  10 C10            4.2996    -2.2225    -1.8191 C.ar    
  11 C11            5.0338    -2.2463    -2.9929 C.ar    
  12 C12            4.5751    -1.5778    -4.1143 C.ar    
  13 C13            3.3839    -0.8834    -4.0724 C.ar    
  14 C14            2.6377    -0.8551    -2.8927 C.ar    
  15 O15            0.6802     0.4498    -3.3047 O.2     
  16 O16           -1.4781     0.0417    -2.5964 O.3     
  17 C17           -1.1696     3.5579     0.1173 C.ar    
  18 C18           -2.3444     4.2913     0.0131 C.ar    
  19 C19           -2.3091     5.6694     0.1133 C.ar    
  20 C20           -1.0981     6.3198     0.3182 C.ar    
  21 C21            0.0740     5.5865     0.4221 C.ar    
  22 C22            0.0384     4.2088     0.3273 C.ar    
  23 F23           -3.4512     6.3838     0.0116 F       
  24 O24           -1.0628     7.6757     0.4164 O.3     
  25 N25           -2.0963     9.3614     4.0360 N.ar    
  26 C26           -2.0165     8.0572     3.9141 C.ar    
  27 C27           -1.6717     7.4536     2.7114 C.ar    
  28 C28           -1.4022     8.2370     1.6030 C.ar    
  29 C29           -1.4912     9.6401     1.7459 C.ar    
  30 C30           -1.2329    10.4992     0.6674 C.ar    
  31 C31           -1.3289    11.8497     0.8415 C.ar    
  32 C32           -1.6826    12.3865     2.0876 C.ar    
  33 C33           -1.9387    11.5732     3.1537 C.ar    
  34 C34           -1.8491    10.1792     3.0057 C.ar    
  35 O35           -1.7712    13.7343     2.2362 O.3     
  36 C36           -2.1357    14.2220     3.5290 C.3     
  37 O37           -1.0785    12.6826    -0.2037 O.3     
  38 C38           -0.7225    12.0746    -1.4469 C.3     
  39 H39           -0.1564    -0.3703     0.4579 H       
  40 H40           -1.3497    -1.6154    -1.3691 H       
  41 H41           -2.2977    -0.2545    -0.7231 H       
  42 H42           -1.9636     1.6685     0.3657 H       
  43 H43            2.5523    -0.7948     0.1664 H       
  44 H44            1.6772    -2.2646    -0.3510 H       
  45 H45            4.6605    -2.7446    -0.9453 H       
  46 H46            5.9673    -2.7879    -3.0332 H       
  47 H47            5.1526    -1.5996    -5.0267 H       
  48 H48            3.0296    -0.3627    -4.9498 H       
  49 H49           -2.2440    -0.2475    -3.1111 H       
  50 H50           -3.2850     3.7851    -0.1465 H       
  51 H51            1.0149     6.0925     0.5811 H       
  52 H52            0.9514     3.6381     0.4125 H       
  53 H53           -2.2244     7.4359     4.7727 H       
  54 H54           -1.6139     6.3774     2.6418 H       
  55 H55           -0.9591    10.0943    -0.2956 H       
  56 H56           -2.2101    12.0002     4.1078 H       
  57 H57           -2.1700    15.3112     3.5101 H       
  58 H58           -3.1166    13.8322     3.8011 H       
  59 H59           -1.3984    13.8943     4.2620 H       
  60 H60            0.1861    11.4867    -1.3168 H       
  61 H61           -1.5319    11.4241    -1.7782 H       
  62 H62           -0.5501    12.8493    -2.1941 H       
@<TRIPOS>BOND
   1    1    2 1
   2    1    4 2
   3    1    5 am
   4    2    3 1
   5    2    7 1
   6    2   39 1
   7    3   16 1
   8    3   40 1
   9    3   41 1
  10    5   17 1
  11    5   42 1
  12    6    7 am
  13    6   14 1
  14    6   15 2
  15    7    8 1
  16    8    9 1
  17    8   43 1
  18    8   44 1
  19    9   10 ar
  20    9   14 ar
  21   10   11 ar
  22   10   45 1
  23   11   12 ar
  24   11   46 1
  25   12   13 ar
  26   12   47 1
  27   13   14 ar
  28   13   48 1
  29   16   49 1
  30   17   18 ar
  31   17   22 ar
  32   18   19 ar
  33   18   50 1
  34   19   20 ar
  35   19   23 1
  36   20   21 ar
  37   20   24 1
  38   21   22 ar
  39   21   51 1
  40   22   52 1
  41   24   28 1
  42   25   26 ar
  43   25   34 ar
  44   26   27 ar
  45   26   53 1
  46   27   28 ar
  47   27   54 1
  48   28   29 ar
  49   29   30 ar
  50   29   34 ar
  51   30   31 ar
  52   30   55 1
  53   31   32 ar
  54   31   37 1
  55   32   33 ar
  56   32   35 1
  57   33   34 ar
  58   33   56 1
  59   35   36 1
  60   36   57 1
  61   36   58 1
  62   36   59 1
  63   37   38 1
  64   38   60 1
  65   38   61 1
  66   38   62 1

#	End of record

