#	Name: ASD05313172
#	Creating user name:	WinNT
#	Creation time:	15. 06. 2019 20:58

#	Modifying user name:	WinNT
#	Modification time:	15. 06. 2019 20:58

#	Program:	/corina/corina34_cracker 3.40 0067  02.08.2006

@<TRIPOS>MOLECULE
ASD05313172
  37   40    0    0    0
SMALL
NO_CHARGES


@<TRIPOS>ATOM
   1 C1            -0.0725     0.8207     1.0204 C.2     
   2 C2             0.1130    -0.6162     0.5945 C.3     
   3 N3             0.9305     1.7334     1.0465 N.pl3   
   4 N4             1.4565    -0.7170    -0.0061 N.am    
   5 C5             2.5708    -0.0354     0.6700 C.3     
   6 C6             2.3172     1.4768     0.6616 C.3     
   7 N7            -0.9037     2.6449     1.7020 N.2     
   8 N8            -1.1573     1.4127     1.4216 N.2     
   9 C9             0.3725     2.8938     1.4894 C.2     
  10 C10            1.0660     4.1841     1.6955 C.ar    
  11 C11            0.3574     5.2977     2.1582 C.ar    
  12 C12            1.0549     6.4827     2.3342 C.ar    
  13 C13            2.4109     6.4920     2.0412 C.ar    
  14 N14            3.0020     5.3943     1.6080 N.ar    
  15 N15            2.3669     4.2906     1.4472 N.ar    
  16 C16            1.6574    -1.4143    -1.1419 C.2     
  17 O17            2.7496    -1.4048    -1.6759 O.2     
  18 C18            0.5510    -2.1896    -1.7377 C.ar    
  19 C19            0.3199    -2.1373    -3.1154 C.ar    
  20 C20           -0.7162    -2.8652    -3.6663 C.ar    
  21 C21           -1.5259    -3.6459    -2.8546 C.ar    
  22 C22           -1.2998    -3.7003    -1.4878 C.ar    
  23 C23           -0.2649    -2.9824    -0.9278 C.ar    
  24 F24           -2.5390    -4.3556    -3.3978 F       
  25 Cl25          -1.0062    -2.8027    -5.3768 Cl      
  26 Cl26           1.3326    -1.1592    -4.1312 Cl      
  27 H27            0.0428    -1.2732     1.4615 H       
  28 H28           -0.6446    -0.8870    -0.1409 H       
  29 H29            2.6418    -0.3869     1.6993 H       
  30 H30            3.5017    -0.2514     0.1457 H       
  31 H31            2.4963     1.8705    -0.3389 H       
  32 H32            2.9878     1.9626     1.3705 H       
  33 H33           -0.6996     5.2364     2.3713 H       
  34 H34            0.5570     7.3730     2.6889 H       
  35 H35            2.9836     7.3989     2.1674 H       
  36 H36           -1.9338    -4.3096    -0.8608 H       
  37 H37           -0.0881    -3.0295     0.1366 H       
@<TRIPOS>BOND
   1    1    2 1
   2    1    3 1
   3    1    8 2
   4    2    4 1
   5    2   27 1
   6    2   28 1
   7    3    6 1
   8    3    9 1
   9    4    5 1
  10    4   16 am
  11    5    6 1
  12    5   29 1
  13    5   30 1
  14    6   31 1
  15    6   32 1
  16    7    8 1
  17    7    9 2
  18    9   10 1
  19   10   11 ar
  20   10   15 ar
  21   11   12 ar
  22   11   33 1
  23   12   13 ar
  24   12   34 1
  25   13   14 ar
  26   13   35 1
  27   14   15 ar
  28   16   17 2
  29   16   18 1
  30   18   19 ar
  31   18   23 ar
  32   19   20 ar
  33   19   26 1
  34   20   21 ar
  35   20   25 1
  36   21   22 ar
  37   21   24 1
  38   22   23 ar
  39   22   36 1
  40   23   37 1

#	End of record

