#	Name: ASD08150547
#	Creating user name:	WinNT
#	Creation time:	15. 06. 2019 21:16

#	Modifying user name:	WinNT
#	Modification time:	15. 06. 2019 21:16

#	Program:	/corina/corina34_cracker 3.40 0067  02.08.2006

@<TRIPOS>MOLECULE
ASD08150547
  36   38    0    0    0
SMALL
NO_CHARGES


@<TRIPOS>ATOM
   1 C1            -1.0055     1.5186     1.1853 C.2     
   2 C2            -0.8212     0.0230     1.2033 C.3     
   3 O3            -0.9824     2.1427     2.2197 O.2     
   4 O4            -1.1900     2.1582     0.0194 O.3     
   5 N5            -1.3552     7.6466     0.1932 N.2     
   6 C6            -2.4817     8.2814     0.0774 C.2     
   7 N7            -3.6787     7.6562    -0.0915 N.am    
   8 C8            -3.7480     6.3057    -0.1477 C.2     
   9 C9            -2.4890     5.5575    -0.0207 C.ar    
  10 C10           -2.4514     4.1655    -0.0652 C.ar    
  11 C11           -1.2371     3.5162     0.0612 C.ar    
  12 C12           -0.0616     4.2445     0.2315 C.ar    
  13 C13           -0.0822     5.6095     0.2772 C.ar    
  14 C14           -1.2944     6.2917     0.1523 C.ar    
  15 O15           -4.8116     5.7328    -0.2976 O.2     
  16 C16           -4.8492     8.4171    -0.2077 C.ar    
  17 C17           -5.5773     8.7528     0.9277 C.ar    
  18 C18           -6.7313     9.5039     0.8091 C.ar    
  19 C19           -7.1614     9.9207    -0.4374 C.ar    
  20 C20           -6.4392     9.5877    -1.5684 C.ar    
  21 C21           -5.2814     8.8423    -1.4564 C.ar    
  22 Cl22          -5.0382     8.2288     2.4924 Cl      
  23 C23           -2.4629     9.7872     0.1335 C.3     
  24 Cl24          -0.7684    10.3591     0.3621 Cl      
  25 H25           -1.7922    -0.4616     1.3052 H       
  26 H26           -0.3515    -0.2964     0.2730 H       
  27 H27           -0.1864    -0.2547     2.0448 H       
  28 H28           -3.3617     3.5992    -0.1962 H       
  29 H29            0.8788     3.7225     0.3291 H       
  30 H30            0.8373     6.1602     0.4102 H       
  31 H31           -7.2978     9.7654     1.6906 H       
  32 H32           -8.0637    10.5073    -0.5277 H       
  33 H33           -6.7784     9.9142    -2.5404 H       
  34 H34           -4.7155     8.5868    -2.3400 H       
  35 H35           -2.8600    10.1904    -0.7981 H       
  36 H36           -3.0768    10.1274     0.9675 H       
@<TRIPOS>BOND
   1    1    2 1
   2    1    3 2
   3    1    4 1
   4    2   25 1
   5    2   26 1
   6    2   27 1
   7    4   11 1
   8    5    6 2
   9    5   14 1
  10    6    7 1
  11    6   23 1
  12    7    8 am
  13    7   16 1
  14    8    9 1
  15    8   15 2
  16    9   10 ar
  17    9   14 ar
  18   10   11 ar
  19   10   28 1
  20   11   12 ar
  21   12   13 ar
  22   12   29 1
  23   13   14 ar
  24   13   30 1
  25   16   17 ar
  26   16   21 ar
  27   17   18 ar
  28   17   22 1
  29   18   19 ar
  30   18   31 1
  31   19   20 ar
  32   19   32 1
  33   20   21 ar
  34   20   33 1
  35   21   34 1
  36   23   24 1
  37   23   35 1
  38   23   36 1

#	End of record

