#	Name: ASD01811818
#	Creating user name:	WinNT
#	Creation time:	15. 06. 2019 19:27

#	Modifying user name:	WinNT
#	Modification time:	15. 06. 2019 19:27

#	Program:	/corina/corina34_cracker 3.40 0067  02.08.2006

@<TRIPOS>MOLECULE
ASD01811818
  56   59    0    0    0
SMALL
NO_CHARGES


@<TRIPOS>ATOM
   1 C1            -0.2557     1.4316    -0.1709 C.ar    
   2 C2            -0.0624     0.0606    -0.1555 C.ar    
   3 C3             1.2113    -0.4641    -0.2870 C.ar    
   4 C4             2.2976     0.3731    -0.4347 C.ar    
   5 C5             2.1107     1.7567    -0.4517 C.ar    
   6 C6             0.8209     2.2756    -0.3177 C.ar    
   7 C7            -1.2425    -0.8628     0.0054 C.3     
   8 C8            -1.4145    -1.2177     1.4837 C.3     
   9 C9             1.4128    -1.9575    -0.2681 C.3     
  10 C10            2.8659    -2.2715    -0.5149 C.ar    
  11 C11            3.7572    -2.2974     0.5446 C.ar    
  12 C12            5.0916    -2.5856     0.3197 C.ar    
  13 C13            5.5351    -2.8484    -0.9688 C.ar    
  14 C14            4.6380    -2.8214    -2.0285 C.ar    
  15 C15            3.3059    -2.5388    -1.7981 C.ar    
  16 F16            3.3237    -2.0409     1.7982 F       
  17 N17            6.8865    -3.1403    -1.2003 N.pl3   
  18 N18            7.8949    -3.2010    -0.2298 N.2     
  19 C19            9.0204    -3.4996    -0.8272 C.2     
  20 C20            8.7662    -3.6387    -2.1961 C.2     
  21 C21            7.4466    -3.4187    -2.3992 C.2     
  22 C22            3.0512     2.8850    -0.5908 C.2     
  23 N23            2.3875     4.0531    -0.5471 N.am    
  24 C24            0.9568     3.7766    -0.3751 C.3     
  25 O25            4.2542     2.7741    -0.7250 O.2     
  26 C26            2.9928     5.3830    -0.6539 C.3     
  27 C27            3.0382     5.8062    -2.1235 C.3     
  28 C28            3.7670     4.7369    -2.9398 C.3     
  29 O29            1.7057     5.9566    -2.6173 O.3     
  30 C30            3.7816     7.1376    -2.2480 C.3     
  31 H31           -1.2514     1.8381    -0.0722 H       
  32 H32            3.2900    -0.0404    -0.5367 H       
  33 H33           -2.1434    -0.3674    -0.3565 H       
  34 H34           -1.0725    -1.7732    -0.5694 H       
  35 H35           -0.5135    -1.7131     1.8457 H       
  36 H36           -1.5844    -0.3074     2.0586 H       
  37 H37           -2.2680    -1.8856     1.6001 H       
  38 H38            1.1158    -2.3519     0.7036 H       
  39 H39            0.8044    -2.4160    -1.0477 H       
  40 H40            5.7872    -2.6056     1.1456 H       
  41 H41            4.9811    -3.0257    -3.0320 H       
  42 H42            2.6086    -2.5183    -2.6226 H       
  43 H43            9.9802    -3.6179    -0.3464 H       
  44 H44            9.4940    -3.8827    -2.9558 H       
  45 H45            6.9341    -3.4522    -3.3493 H       
  46 H46            0.3945     4.1715    -1.2213 H       
  47 H47            0.5984     4.2209     0.5535 H       
  48 H48            2.3977     6.0995    -0.0876 H       
  49 H49            4.0058     5.3544    -0.2525 H       
  50 H50            3.2374     3.7883    -2.8511 H       
  51 H51            3.7994     5.0384    -3.9868 H       
  52 H52            4.7834     4.6221    -2.5631 H       
  53 H53            1.1839     6.6199    -2.1453 H       
  54 H54            4.7980     7.0229    -1.8713 H       
  55 H55            3.8140     7.4391    -3.2950 H       
  56 H56            3.2624     7.8994    -1.6664 H       
@<TRIPOS>BOND
   1    1    2 ar
   2    1    6 ar
   3    1   31 1
   4    2    3 ar
   5    2    7 1
   6    3    4 ar
   7    3    9 1
   8    4    5 ar
   9    4   32 1
  10    5    6 ar
  11    5   22 1
  12    6   24 1
  13    7    8 1
  14    7   33 1
  15    7   34 1
  16    8   35 1
  17    8   36 1
  18    8   37 1
  19    9   10 1
  20    9   38 1
  21    9   39 1
  22   10   11 ar
  23   10   15 ar
  24   11   12 ar
  25   11   16 1
  26   12   13 ar
  27   12   40 1
  28   13   14 ar
  29   13   17 1
  30   14   15 ar
  31   14   41 1
  32   15   42 1
  33   17   18 1
  34   17   21 1
  35   18   19 2
  36   19   20 1
  37   19   43 1
  38   20   21 2
  39   20   44 1
  40   21   45 1
  41   22   23 am
  42   22   25 2
  43   23   24 1
  44   23   26 1
  45   24   46 1
  46   24   47 1
  47   26   27 1
  48   26   48 1
  49   26   49 1
  50   27   28 1
  51   27   29 1
  52   27   30 1
  53   28   50 1
  54   28   51 1
  55   28   52 1
  56   29   53 1
  57   30   54 1
  58   30   55 1
  59   30   56 1

#	End of record

