#	Name: ASD01884323
#	Creating user name:	WinNT
#	Creation time:	15. 06. 2019 19:48

#	Modifying user name:	WinNT
#	Modification time:	15. 06. 2019 19:48

#	Program:	/corina/corina34_cracker 3.40 0067  02.08.2006

@<TRIPOS>MOLECULE
ASD01884323
  60   63    0    0    0
SMALL
NO_CHARGES


@<TRIPOS>ATOM
   1 C1            -0.0168     1.3884     0.0097 C.2     
   2 C2             0.0021    -0.0041     0.0020 C.2     
   3 C3            -1.2095    -0.6965     0.0104 C.2     
   4 C4            -2.3831    -0.0157     0.0252 C.2     
   5 N5            -2.4093     1.3392     0.0327 N.am    
   6 C6            -1.2693     2.0558     0.0312 C.2     
   7 O7            -1.3129     3.2741     0.0380 O.2     
   8 C8            -3.6983     2.0352     0.0483 C.3     
   9 C9            -4.1338     2.2698     1.4962 C.3     
  10 C10            1.2059     2.1337     0.0020 C.1     
  11 N11            2.1759     2.7249    -0.0041 N.1     
  12 C12            1.3105    -0.7515    -0.0155 C.3     
  13 N13            1.6901    -1.1066     1.3585 N.3     
  14 C14            2.8290    -2.0352     1.3670 C.3     
  15 C15            3.2431    -2.3172     2.8131 C.3     
  16 N16            2.1012    -2.8822     3.5456 N.3     
  17 C17            0.9623    -1.9536     3.5371 C.3     
  18 C18            0.5482    -1.6716     2.0910 C.3     
  19 C19            2.4808    -3.2373     4.9196 C.3     
  20 C20            1.2440    -3.5790     5.7100 C.ar    
  21 C21            0.7851    -4.8824     5.7462 C.ar    
  22 C22           -0.3494    -5.1959     6.4712 C.ar    
  23 C23           -1.0247    -4.2060     7.1603 C.ar    
  24 C24           -0.5653    -2.9027     7.1248 C.ar    
  25 C25            0.5717    -2.5900     6.4034 C.ar    
  26 O26           -3.2152     3.1611     2.1314 O.3     
  27 C27           -3.4593     3.4758     3.4308 C.ar    
  28 C28           -2.6079     4.3357     4.1092 C.ar    
  29 C29           -2.8582     4.6540     5.4300 C.ar    
  30 C30           -3.9563     4.1164     6.0757 C.ar    
  31 C31           -4.8061     3.2588     5.4019 C.ar    
  32 C32           -4.5636     2.9423     4.0792 C.ar    
  33 H33           -1.2130    -1.7765     0.0046 H       
  34 H34           -3.3137    -0.5638     0.0308 H       
  35 H35           -3.5999     2.9937    -0.4613 H       
  36 H36           -4.4456     1.4275    -0.4619 H       
  37 H37           -5.1322     2.7071     1.5090 H       
  38 H38           -4.1465     1.3197     2.0302 H       
  39 H39            1.2023    -1.6595    -0.6087 H       
  40 H40            2.0835    -0.1207    -0.4544 H       
  41 H41            2.5411    -2.9683     0.8826 H       
  42 H42            3.6659    -1.5892     0.8295 H       
  43 H43            4.0692    -3.0283     2.8228 H       
  44 H44            3.5569    -1.3883     3.2893 H       
  45 H45            0.1254    -2.3996     4.0746 H       
  46 H46            1.2502    -1.0205     4.0215 H       
  47 H47           -0.2779    -0.9605     2.0813 H       
  48 H48            0.2344    -2.6005     1.6148 H       
  49 H49            3.1494    -4.0979     4.9010 H       
  50 H50            2.9883    -2.3929     5.3861 H       
  51 H51            1.3127    -5.6559     5.2078 H       
  52 H52           -0.7083    -6.2141     6.4989 H       
  53 H53           -1.9115    -4.4507     7.7261 H       
  54 H54           -1.0931    -2.1292     7.6629 H       
  55 H55            0.9306    -1.5718     6.3756 H       
  56 H56           -1.7499     4.7556     3.6054 H       
  57 H57           -2.1955     5.3231     5.9587 H       
  58 H58           -4.1503     4.3665     7.1083 H       
  59 H59           -5.6628     2.8396     5.9087 H       
  60 H60           -5.2277     2.2724     3.5533 H       
@<TRIPOS>BOND
   1    1    2 2
   2    1   10 1
   3    1    6 1
   4    2    3 1
   5    2   12 1
   6    3    4 2
   7    3   33 1
   8    4    5 1
   9    4   34 1
  10    5    6 am
  11    5    8 1
  12    6    7 2
  13    8    9 1
  14    8   35 1
  15    8   36 1
  16    9   26 1
  17    9   37 1
  18    9   38 1
  19   10   11 3
  20   12   13 1
  21   12   39 1
  22   12   40 1
  23   13   14 1
  24   13   18 1
  25   14   15 1
  26   14   41 1
  27   14   42 1
  28   15   16 1
  29   15   43 1
  30   15   44 1
  31   16   17 1
  32   16   19 1
  33   17   18 1
  34   17   45 1
  35   17   46 1
  36   18   47 1
  37   18   48 1
  38   19   20 1
  39   19   49 1
  40   19   50 1
  41   20   21 ar
  42   20   25 ar
  43   21   22 ar
  44   21   51 1
  45   22   23 ar
  46   22   52 1
  47   23   24 ar
  48   23   53 1
  49   24   25 ar
  50   24   54 1
  51   25   55 1
  52   26   27 1
  53   27   28 ar
  54   27   32 ar
  55   28   29 ar
  56   28   56 1
  57   29   30 ar
  58   29   57 1
  59   30   31 ar
  60   30   58 1
  61   31   32 ar
  62   31   59 1
  63   32   60 1

#	End of record

