#	Name: ASD07931883
#	Creating user name:	WinNT
#	Creation time:	15. 06. 2019 21:13

#	Modifying user name:	WinNT
#	Modification time:	15. 06. 2019 21:13

#	Program:	/corina/corina34_cracker 3.40 0067  02.08.2006

@<TRIPOS>MOLECULE
ASD07931883
  62   65    0    0    0
SMALL
NO_CHARGES


@<TRIPOS>ATOM
   1 C1            -0.0039     1.3791     0.0435 C.2     
   2 C2            -0.0086     0.0166     0.0494 C.2     
   3 C3             1.1929    -0.7005     0.0005 C.2     
   4 C4             2.3787    -0.0205    -0.0537 C.2     
   5 C5             2.3543     1.4433    -0.0589 C.2     
   6 N6             1.1700     2.0853    -0.0103 N.am    
   7 C7            -1.2862     2.1080     0.0896 C.2     
   8 O8            -1.2936     3.3190     0.1982 O.2     
   9 N9            -2.4492     1.4314     0.0115 N.am    
  10 O10            3.3956     2.0759    -0.1062 O.2     
  11 C11            4.4802    -0.7135    -1.1323 C.2     
  12 N12            5.4905    -1.4733    -0.8081 N.2     
  13 C13            5.2920    -1.9776     0.4191 C.2     
  14 C14            4.1137    -1.5154     0.8784 C.2     
  15 N15            3.5928    -0.7114    -0.1029 N.pl3   
  16 C16            6.2261    -2.9024     1.1561 C.3     
  17 C17           -3.7222     2.1550     0.0573 C.3     
  18 C18           -4.0817     2.6440    -1.3472 C.3     
  19 O19           -4.9410     0.0621    -0.2826 O.3     
  20 C20           -4.8212     1.2217     0.5692 C.3     
  21 C21           -4.4312     0.6217     1.9440 C.3     
  22 C22           -5.2616    -0.6845     1.9752 C.3     
  23 C23           -5.5805    -0.9648     0.4939 C.3     
  24 C24           -5.0411    -2.3157     0.1002 C.ar    
  25 C25           -5.8902    -3.4037     0.0269 C.ar    
  26 C26           -5.3957    -4.6455    -0.3347 C.ar    
  27 C27           -4.0504    -4.7969    -0.6231 C.ar    
  28 C28           -3.2009    -3.7065    -0.5498 C.ar    
  29 C29           -3.6986    -2.4646    -0.1927 C.ar    
  30 C30           -3.5108    -6.1480    -1.0162 C.3     
  31 F31           -3.5850    -6.2935    -2.4057 F       
  32 F32           -2.1774    -6.2548    -0.6067 F       
  33 F33           -4.2692    -7.1499    -0.4013 F       
  34 F34           -1.8876    -3.8528    -0.8311 F       
  35 F35           -6.2258    -5.7090    -0.4054 F       
  36 C36            1.1370     3.5500    -0.0155 C.3     
  37 C37            1.0290     4.0628     1.4220 C.3     
  38 Cl38           0.9883     5.8653     1.4156 Cl      
  39 H39           -0.9477    -0.5150     0.0927 H       
  40 H40            1.1837    -1.7805     0.0058 H       
  41 H41           -2.4433     0.4652    -0.0752 H       
  42 H42            4.3699    -0.1733    -2.0609 H       
  43 H43            3.6649    -1.7358     1.8356 H       
  44 H44            6.9301    -2.3143     1.7449 H       
  45 H45            5.6500    -3.5489     1.8180 H       
  46 H46            6.7740    -3.5130     0.4384 H       
  47 H47           -3.6303     3.0098     0.7273 H       
  48 H48           -5.0288     3.1824    -1.3131 H       
  49 H49           -3.2987     3.3089    -1.7119 H       
  50 H50           -4.1736     1.7892    -2.0171 H       
  51 H51           -5.7731     1.7485     0.6364 H       
  52 H52           -3.3637     0.4050     1.9852 H       
  53 H53           -4.7231     1.2877     2.7560 H       
  54 H54           -4.6753    -1.4993     2.4000 H       
  55 H55           -6.1809    -0.5387     2.5424 H       
  56 H56           -6.6583    -0.9330     0.3343 H       
  57 H57           -6.9399    -3.2853     0.2520 H       
  58 H58           -3.0368    -1.6128    -0.1394 H       
  59 H59            2.0509     3.9324    -0.4699 H       
  60 H60            0.2754     3.8919    -0.5889 H       
  61 H61            0.1150     3.6803     1.8765 H       
  62 H62            1.8905     3.7208     1.9954 H       
@<TRIPOS>BOND
   1    1    2 2
   2    1    6 1
   3    1    7 1
   4    2    3 1
   5    2   39 1
   6    3    4 2
   7    3   40 1
   8    4    5 1
   9    4   15 1
  10    5    6 am
  11    5   10 2
  12    6   36 1
  13    7    8 2
  14    7    9 am
  15    9   17 1
  16    9   41 1
  17   11   12 2
  18   11   15 1
  19   11   42 1
  20   12   13 1
  21   13   14 2
  22   13   16 1
  23   14   15 1
  24   14   43 1
  25   16   44 1
  26   16   45 1
  27   16   46 1
  28   17   18 1
  29   17   20 1
  30   17   47 1
  31   18   48 1
  32   18   49 1
  33   18   50 1
  34   19   23 1
  35   19   20 1
  36   20   21 1
  37   20   51 1
  38   21   22 1
  39   21   52 1
  40   21   53 1
  41   22   23 1
  42   22   54 1
  43   22   55 1
  44   23   24 1
  45   23   56 1
  46   24   25 ar
  47   24   29 ar
  48   25   26 ar
  49   25   57 1
  50   26   27 ar
  51   26   35 1
  52   27   28 ar
  53   27   30 1
  54   28   29 ar
  55   28   34 1
  56   29   58 1
  57   30   31 1
  58   30   32 1
  59   30   33 1
  60   36   37 1
  61   36   59 1
  62   36   60 1
  63   37   38 1
  64   37   61 1
  65   37   62 1

#	End of record

