#	Name: ASD01840268
#	Creating user name:	WinNT
#	Creation time:	15. 06. 2019 19:37

#	Modifying user name:	WinNT
#	Modification time:	15. 06. 2019 19:37

#	Program:	/corina/corina34_cracker 3.40 0067  02.08.2006

@<TRIPOS>MOLECULE
ASD01840268
  38   41    0    0    0
SMALL
NO_CHARGES


@<TRIPOS>ATOM
   1 C1             1.7187     1.2820     0.2338 C.3     
   2 C2             1.2770    -0.1568     0.1586 C.ar    
   3 N3             1.3876    -0.8222    -0.9778 N.ar    
   4 N4             1.0291    -2.0455    -1.0998 N.ar    
   5 C5             0.5149    -2.7425    -0.0844 C.ar    
   6 S6            -0.0418    -4.4063    -0.0084 S.3     
   7 C7            -0.4827    -4.2708     1.6871 C.2     
   8 C8            -1.0311    -5.0293     2.7530 C.2     
   9 N9            -1.4402    -6.3668     2.6798 N.pl3   
  10 C10           -1.9918    -7.0300     3.8640 C.3     
  11 C11           -2.9826    -8.1043     3.4133 C.3     
  12 C12           -2.2249    -9.4468     3.2372 C.3     
  13 S13           -1.1214    -9.4196     4.7091 S.3     
  14 C14           -0.8349    -7.6082     4.6946 C.3     
  15 N15           -1.0903    -4.2696     3.8149 N.2     
  16 N16           -0.5921    -3.0035     3.4963 N.pl3   
  17 C17           -0.4865    -1.8631     4.4099 C.3     
  18 C18           -0.2162    -3.0181     2.1641 C.2     
  19 C19            0.3584    -2.1252     1.1581 C.ar    
  20 C20            0.7633    -0.7784     1.2771 C.ar    
  21 C21            0.6337    -0.0409     2.5850 C.3     
  22 H22            2.7704     1.3248     0.5171 H       
  23 H23            1.5850     1.7545    -0.7393 H       
  24 H24            1.1203     1.8074     0.9781 H       
  25 H25           -1.3584    -6.8541     1.8451 H       
  26 H26           -2.5235    -6.2923     4.4651 H       
  27 H27           -3.7629    -8.2208     4.1654 H       
  28 H28           -3.4332    -7.8116     2.4650 H       
  29 H29           -2.9108   -10.2931     3.2758 H       
  30 H30           -1.6471    -9.4536     2.3129 H       
  31 H31            0.1211    -7.3796     4.2234 H       
  32 H32           -0.8623    -7.2121     5.7097 H       
  33 H33            0.5266    -1.8094     4.8084 H       
  34 H34           -0.7142    -0.9435     3.8709 H       
  35 H35           -1.1935    -1.9880     5.2301 H       
  36 H36           -0.3850     0.3317     2.6925 H       
  37 H37            0.8616    -0.7182     3.4081 H       
  38 H38            1.3306     0.7970     2.6002 H       
@<TRIPOS>BOND
   1    1    2 1
   2    1   22 1
   3    1   23 1
   4    1   24 1
   5    2   20 ar
   6    2    3 ar
   7    3    4 ar
   8    4    5 ar
   9    5   19 ar
  10    5    6 1
  11    6    7 1
  12    7   18 2
  13    7    8 1
  14    8    9 1
  15    8   15 2
  16    9   10 1
  17    9   25 1
  18   10   14 1
  19   10   11 1
  20   10   26 1
  21   11   12 1
  22   11   27 1
  23   11   28 1
  24   12   13 1
  25   12   29 1
  26   12   30 1
  27   13   14 1
  28   14   31 1
  29   14   32 1
  30   15   16 1
  31   16   17 1
  32   16   18 1
  33   17   33 1
  34   17   34 1
  35   17   35 1
  36   18   19 1
  37   19   20 ar
  38   20   21 1
  39   21   36 1
  40   21   37 1
  41   21   38 1

#	End of record

