#	Name: ASD02030570
#	Creating user name:	WinNT
#	Creation time:	15. 06. 2019 20:15

#	Modifying user name:	WinNT
#	Modification time:	15. 06. 2019 20:15

#	Program:	/corina/corina34_cracker 3.40 0067  02.08.2006

@<TRIPOS>MOLECULE
ASD02030570
  49   52    0    0    0
SMALL
NO_CHARGES


@<TRIPOS>ATOM
   1 C1            -0.2521     1.5166     0.0268 C.ar    
   2 C2            -0.3939     0.1351     0.0665 C.ar    
   3 C3             0.7237    -0.6728     0.1376 C.ar    
   4 C4             1.9855    -0.1087     0.1701 C.ar    
   5 C5             2.1303     1.2657     0.1305 C.ar    
   6 C6            -1.2496     3.5524    -0.5261 C.2     
   7 O7            -1.3492     2.3041    -0.0360 O.3     
   8 C8             1.0151     2.0783     0.0578 C.ar    
   9 C9             1.1765     3.5725     0.0097 C.3     
  10 C10           -1.1877     6.2475    -1.5704 C.3     
  11 C11           -2.4389     5.7087    -0.8687 C.3     
  12 C12           -2.5006     4.1936    -1.0814 C.3     
  13 C13           -0.0769     4.2157    -0.5315 C.2     
  14 C14            0.0189     5.5273    -1.0336 C.2     
  15 C15           -2.3612     6.0153     0.6283 C.3     
  16 C16           -3.6860     6.3621    -1.4677 C.3     
  17 O17            1.0965     6.0884    -1.0329 O.2     
  18 C18            1.4474     4.0986     1.4206 C.3     
  19 C19            0.3222     3.6873     2.3348 C.2     
  20 C20            0.4095     3.9597     3.7753 C.ar    
  21 O21           -0.6555     3.1312     1.8809 O.2     
  22 C22            1.6110     4.8592     5.6466 C.ar    
  23 C23            1.5347     4.6068     4.3010 C.ar    
  24 C24           -0.6347     3.5785     4.6270 C.ar    
  25 C25           -0.5484     3.8356     5.9711 C.ar    
  26 C26            0.5736     4.4738     6.4889 C.ar    
  27 O27            0.6542     4.7255     7.8195 O.3     
  28 H28           -1.3789    -0.3072     0.0421 H       
  29 H29            0.6120    -1.7466     0.1683 H       
  30 H30            2.8585    -0.7420     0.2269 H       
  31 H31            3.1166     1.7050     0.1563 H       
  32 H32            2.0170     3.8242    -0.6371 H       
  33 H33           -1.2685     6.0757    -2.6437 H       
  34 H34           -1.0913     7.3156    -1.3759 H       
  35 H35           -2.5765     3.9798    -2.1475 H       
  36 H36           -3.3737     3.7905    -0.5682 H       
  37 H37           -2.2998     7.0935     0.7756 H       
  38 H38           -3.2524     5.6310     1.1246 H       
  39 H39           -1.4763     5.5398     1.0511 H       
  40 H40           -3.7409     6.1326    -2.5318 H       
  41 H41           -4.5742     5.9770    -0.9667 H       
  42 H42           -3.6314     7.4421    -1.3313 H       
  43 H43            2.3854     3.6835     1.7893 H       
  44 H44            1.5163     5.1862     1.3958 H       
  45 H45            2.4783     5.3582     6.0531 H       
  46 H46            2.3410     4.9062     3.6479 H       
  47 H47           -1.5065     3.0832     4.2258 H       
  48 H48           -1.3533     3.5423     6.6288 H       
  49 H49            0.2862     5.5806     8.0811 H       
@<TRIPOS>BOND
   1    1    2 ar
   2    1    8 ar
   3    1    7 1
   4    2    3 ar
   5    2   28 1
   6    3    4 ar
   7    3   29 1
   8    4    5 ar
   9    4   30 1
  10    5    8 ar
  11    5   31 1
  12    6    7 1
  13    6   13 2
  14    6   12 1
  15    8    9 1
  16    9   18 1
  17    9   13 1
  18    9   32 1
  19   10   11 1
  20   10   14 1
  21   10   33 1
  22   10   34 1
  23   11   12 1
  24   11   15 1
  25   11   16 1
  26   12   35 1
  27   12   36 1
  28   13   14 1
  29   14   17 2
  30   15   37 1
  31   15   38 1
  32   15   39 1
  33   16   40 1
  34   16   41 1
  35   16   42 1
  36   18   19 1
  37   18   43 1
  38   18   44 1
  39   19   20 1
  40   19   21 2
  41   20   24 ar
  42   20   23 ar
  43   22   23 ar
  44   22   26 ar
  45   22   45 1
  46   23   46 1
  47   24   25 ar
  48   24   47 1
  49   25   26 ar
  50   25   48 1
  51   26   27 1
  52   27   49 1

#	End of record

