#	Name: ASD01811478
#	Creating user name:	WinNT
#	Creation time:	15. 06. 2019 19:26

#	Modifying user name:	WinNT
#	Modification time:	15. 06. 2019 19:26

#	Program:	/corina/corina34_cracker 3.40 0067  02.08.2006

@<TRIPOS>MOLECULE
ASD01811478
  72   77    0    0    0
SMALL
NO_CHARGES


@<TRIPOS>ATOM
   1 C1            -7.3214     2.2133    -4.0019 C.1     
   2 C2            -6.3439     3.0076    -3.3205 C.ar    
   3 C3            -5.1730     2.4183    -2.8394 C.ar    
   4 C4            -4.2356     3.1893    -2.1839 C.ar    
   5 C5            -4.4538     4.5435    -2.0022 C.ar    
   6 C6            -5.6121     5.1338    -2.4759 C.ar    
   7 C7            -6.5548     4.3759    -3.1392 C.ar    
   8 N8            -8.0969     1.5833    -4.5425 N.1     
   9 N9            -2.4098     7.7982    -0.2276 N.am    
  10 C10           -1.8546     7.3097    -1.4972 C.3     
  11 C11           -2.9246     6.4838    -2.2180 C.3     
  12 C12           -3.4254     5.3792    -1.2846 C.3     
  13 C13           -4.0572     6.0078    -0.0405 C.3     
  14 C14           -3.0000     6.8284     0.7050 C.3     
  15 C15           -2.3735     9.1104     0.0781 C.2     
  16 C16           -3.0190     9.5994     1.3152 C.ar    
  17 C17           -3.9802    10.6109     1.2505 C.ar    
  18 C18           -4.5837    11.0684     2.4046 C.ar    
  19 C19           -4.2422    10.5303     3.6299 C.ar    
  20 C20           -3.2831     9.5189     3.7087 C.ar    
  21 C21           -2.6742     9.0484     2.5475 C.ar    
  22 O22           -1.8100     9.8917    -0.6632 O.2     
  23 C23           -1.1308     6.7440     7.3504 C.3     
  24 C24           -1.9686     7.7266     6.5742 C.2     
  25 C25           -2.8618     8.5698     7.1459 C.2     
  26 C26           -3.1172     8.6104     8.6335 C.3     
  27 C27           -2.5355     7.3290     9.2463 C.3     
  28 N28           -1.1589     7.1337     8.7707 N.3     
  29 C29           -2.9182     8.9441     5.0221 C.2     
  30 N30           -1.9990     7.9545     5.2343 N.pl3   
  31 N31           -3.4239     9.2989     6.1857 N.2     
  32 C32           -0.4498     6.1506     9.6005 C.3     
  33 C33           -4.3588    11.2043    -0.0820 C.3     
  34 C34           -5.3450    10.2750    -0.7924 C.3     
  35 C35           -4.9060    11.0364     4.8846 C.3     
  36 C36           -4.7388    12.5190     5.2235 C.3     
  37 C37           -6.0863    11.9962     4.7216 C.3     
  38 H38           -5.0018     1.3612    -2.9800 H       
  39 H39           -3.3296     2.7348    -1.8113 H       
  40 H40           -5.7762     6.1913    -2.3304 H       
  41 H41           -7.4562     4.8389    -3.5127 H       
  42 H42           -1.5658     8.1566    -2.1196 H       
  43 H43           -0.9833     6.6855    -1.2988 H       
  44 H44           -3.7570     7.1302    -2.4962 H       
  45 H45           -2.4958     6.0359    -3.1145 H       
  46 H46           -2.5881     4.7480    -0.9869 H       
  47 H47           -4.8789     6.6587    -0.3392 H       
  48 H48           -4.4346     5.2212     0.6129 H       
  49 H49           -2.2221     6.1649     1.0830 H       
  50 H50           -3.4670     7.3577     1.5356 H       
  51 H51           -5.3260    11.8509     2.3493 H       
  52 H52           -1.9349     8.2631     2.6026 H       
  53 H53           -1.5412     5.7406     7.2364 H       
  54 H54           -0.1046     6.7657     6.9836 H       
  55 H55           -2.6280     9.4822     9.0681 H       
  56 H56           -4.1897     8.6559     8.8225 H       
  57 H57           -2.5352     7.4143    10.3329 H       
  58 H58           -3.1459     6.4758     8.9502 H       
  59 H59           -1.4700     7.5021     4.5587 H       
  60 H60            0.5693     6.0322     9.2325 H       
  61 H61           -0.4250     6.4975    10.6336 H       
  62 H62           -0.9675     5.1926     9.5512 H       
  63 H63           -4.8239    12.1779     0.0727 H       
  64 H64           -3.4648    11.3219    -0.6945 H       
  65 H65           -6.2390    10.1574    -0.1800 H       
  66 H66           -5.6189    10.7042    -1.7562 H       
  67 H67           -4.8800     9.3015    -0.9472 H       
  68 H68           -4.9413    10.3312     5.7150 H       
  69 H69           -4.6646    12.7892     6.2769 H       
  70 H70           -4.1487    13.1283     4.5389 H       
  71 H71           -6.3827    12.2616     3.7068 H       
  72 H72           -6.8985    11.9225     5.4447 H       
@<TRIPOS>BOND
   1    1    2 1
   2    1    8 3
   3    2    3 ar
   4    2    7 ar
   5    3    4 ar
   6    3   38 1
   7    4    5 ar
   8    4   39 1
   9    5    6 ar
  10    5   12 1
  11    6    7 ar
  12    6   40 1
  13    7   41 1
  14    9   10 1
  15    9   14 1
  16    9   15 am
  17   10   11 1
  18   10   42 1
  19   10   43 1
  20   11   12 1
  21   11   44 1
  22   11   45 1
  23   12   13 1
  24   12   46 1
  25   13   14 1
  26   13   47 1
  27   13   48 1
  28   14   49 1
  29   14   50 1
  30   15   16 1
  31   15   22 2
  32   16   17 ar
  33   16   21 ar
  34   17   18 ar
  35   17   33 1
  36   18   19 ar
  37   18   51 1
  38   19   20 ar
  39   19   35 1
  40   20   21 ar
  41   20   29 1
  42   21   52 1
  43   23   24 1
  44   23   28 1
  45   23   53 1
  46   23   54 1
  47   24   25 2
  48   24   30 1
  49   25   26 1
  50   25   31 1
  51   26   27 1
  52   26   55 1
  53   26   56 1
  54   27   28 1
  55   27   57 1
  56   27   58 1
  57   28   32 1
  58   29   30 1
  59   29   31 2
  60   30   59 1
  61   32   60 1
  62   32   61 1
  63   32   62 1
  64   33   34 1
  65   33   63 1
  66   33   64 1
  67   34   65 1
  68   34   66 1
  69   34   67 1
  70   35   36 1
  71   35   37 1
  72   35   68 1
  73   36   37 1
  74   36   69 1
  75   36   70 1
  76   37   71 1
  77   37   72 1

#	End of record

