#	Name: ASD02508308
#	Creating user name:	WinNT
#	Creation time:	15. 06. 2019 20:24

#	Modifying user name:	WinNT
#	Modification time:	15. 06. 2019 20:24

#	Program:	/corina/corina34_cracker 3.40 0067  02.08.2006

@<TRIPOS>MOLECULE
ASD02508308
  48   50    0    0    0
SMALL
NO_CHARGES


@<TRIPOS>ATOM
   1 C1            -0.3558     1.1760    -0.5732 C.ar    
   2 C2            -0.3038    -0.2076    -0.4620 C.ar    
   3 C3             0.8931    -0.8751    -0.6892 C.ar    
   4 C4             2.0269    -0.1615    -1.0246 C.ar    
   5 C5             1.9718     1.2159    -1.1339 C.ar    
   6 C6             0.7818     1.8834    -0.9089 C.ar    
   7 S7             3.4209     2.1224    -1.5615 S.o2    
   8 O8             3.2281     3.4420    -1.0709 O.2     
   9 O9             4.5264     1.3096    -1.1919 O.2     
  10 C10            3.4595     2.2457    -3.3188 C.ar    
  11 C11            2.8526     3.3156    -3.9487 C.ar    
  12 C12            2.8809     3.4148    -5.3319 C.ar    
  13 C13            3.5240     2.4374    -6.0818 C.ar    
  14 C14            4.1305     1.3658    -5.4434 C.ar    
  15 C15            4.1017     1.2748    -4.0647 C.ar    
  16 O16            2.2720     4.4700    -5.9387 O.3     
  17 C17            2.6416     4.7325    -7.2967 C.3     
  18 C18            2.6322     3.4030    -8.0632 C.3     
  19 O19            3.5705     2.5194    -7.4396 O.3     
  20 C20           -1.5101    -1.6582     1.1455 C.3     
  21 N21           -1.4523    -0.9262    -0.1222 N.am    
  22 S22           -2.7488    -0.9506    -1.1522 S.o2    
  23 C23           -3.8438     0.3562    -0.5328 C.3     
  24 O24           -2.2019    -0.5872    -2.4125 O.2     
  25 O25           -3.3339    -2.2295    -0.9488 O.2     
  26 C26           -0.4798    -2.7892     1.1288 C.3     
  27 C27           -1.2006    -0.7034     2.3003 C.3     
  28 H28           -1.2858     1.6976    -0.4016 H       
  29 H29            0.9370    -1.9508    -0.6032 H       
  30 H30            2.9578    -0.6798    -1.2013 H       
  31 H31            0.7422     2.9593    -0.9952 H       
  32 H32            2.3556     4.0750    -3.3634 H       
  33 H33            4.6289     0.6036    -6.0240 H       
  34 H34            4.5745     0.4395    -3.5696 H       
  35 H35            1.9258     5.4208    -7.7460 H       
  36 H36            3.6404     5.1678    -7.3282 H       
  37 H37            1.6347     2.9649    -8.0271 H       
  38 H38            2.9217     3.5743    -9.1000 H       
  39 H39           -2.5076    -2.0772     1.2780 H       
  40 H40           -3.3788     1.3282    -0.6973 H       
  41 H41           -4.7954     0.3143    -1.0627 H       
  42 H42           -4.0152     0.2113     0.5339 H       
  43 H43            0.5245    -2.3657     1.1159 H       
  44 H44           -0.6027    -3.4058     2.0192 H       
  45 H45           -0.6272    -3.4018     0.2394 H       
  46 H46           -1.9582     0.0794     2.3376 H       
  47 H47           -1.2030    -1.2564     3.2396 H       
  48 H48           -0.2200    -0.2529     2.1464 H       
@<TRIPOS>BOND
   1    1    2 ar
   2    1    6 ar
   3    1   28 1
   4    2    3 ar
   5    2   21 1
   6    3    4 ar
   7    3   29 1
   8    4    5 ar
   9    4   30 1
  10    5    6 ar
  11    5    7 1
  12    6   31 1
  13    7    8 2
  14    7    9 2
  15    7   10 1
  16   10   11 ar
  17   10   15 ar
  18   11   12 ar
  19   11   32 1
  20   12   13 ar
  21   12   16 1
  22   13   14 ar
  23   13   19 1
  24   14   15 ar
  25   14   33 1
  26   15   34 1
  27   16   17 1
  28   17   18 1
  29   17   35 1
  30   17   36 1
  31   18   19 1
  32   18   37 1
  33   18   38 1
  34   20   21 1
  35   20   26 1
  36   20   27 1
  37   20   39 1
  38   21   22 am
  39   22   23 1
  40   22   24 2
  41   22   25 2
  42   23   40 1
  43   23   41 1
  44   23   42 1
  45   26   43 1
  46   26   44 1
  47   26   45 1
  48   27   46 1
  49   27   47 1
  50   27   48 1

#	End of record

