#	Name: ASD01914627
#	Creating user name:	WinNT
#	Creation time:	15. 06. 2019 20:03

#	Modifying user name:	WinNT
#	Modification time:	15. 06. 2019 20:03

#	Program:	/corina/corina34_cracker 3.40 0067  02.08.2006

@<TRIPOS>MOLECULE
ASD01914627
  62   67    0    0    0
SMALL
NO_CHARGES


@<TRIPOS>ATOM
   1 N1             0.6668     1.4429     0.7790 N.2     
   2 N2             0.9797     0.2325     1.0737 N.pl3   
   3 C3             1.2840    -0.4935    -0.0378 C.2     
   4 C4             1.1388     0.3760    -1.1269 C.ar    
   5 C5             1.2879     0.2932    -2.5170 C.ar    
   6 C6             1.0489     1.3924    -3.2826 C.ar    
   7 C7             0.6578     2.6057    -2.7164 C.ar    
   8 C8             0.4959     2.7516    -1.3758 C.ar    
   9 C9             0.7262     1.6525    -0.5243 C.ar    
  10 C10            1.6831    -1.9014    -0.0851 C.2     
  11 O11            2.8589    -2.1974    -0.1941 O.2     
  12 N12            0.7488    -2.8697    -0.0079 N.am    
  13 C13            1.1352    -4.2744    -0.1624 C.3     
  14 C14           -0.1046    -5.1615    -0.0330 C.3     
  15 C15            0.2989    -6.6285    -0.1943 C.3     
  16 C16            1.3090    -7.0021     0.8924 C.3     
  17 C17            2.5488    -6.1150     0.7631 C.3     
  18 C18            3.1820    -6.3212    -0.6144 C.3     
  19 C19            2.1719    -5.9477    -1.7011 C.3     
  20 C20            1.7684    -4.4807    -1.5398 C.3     
  21 C21            0.9321    -6.8348    -1.5718 C.3     
  22 C22            2.1453    -4.6480     0.9244 C.3     
  23 N23           -0.8883    -7.4780    -0.0705 N.am    
  24 C24           -0.7734    -8.8165    -0.1789 C.2     
  25 O25            0.3148    -9.3187    -0.3794 O.2     
  26 C26           -1.9741    -9.6756    -0.0536 C.ar    
  27 C27           -1.8488   -11.0584    -0.1667 C.ar    
  28 C28           -2.9808   -11.8489    -0.0468 C.ar    
  29 C29           -4.1992   -11.2287     0.1821 C.ar    
  30 C30           -4.2499    -9.8478     0.2836 C.ar    
  31 N31           -3.1591    -9.1217     0.1708 N.ar    
  32 C32           -5.5722    -9.1689     0.5324 C.3     
  33 C33            1.0066    -0.3014     2.4377 C.3     
  34 H34            1.5906    -0.6356    -2.9776 H       
  35 H35            1.1652     1.3240    -4.3541 H       
  36 H36            0.4791     3.4528    -3.3620 H       
  37 H37            0.1929     3.7034    -0.9651 H       
  38 H38           -0.1794    -2.6366     0.1498 H       
  39 H39           -0.5558    -5.0146     0.9483 H       
  40 H40           -0.8242    -4.8954    -0.8073 H       
  41 H41            0.8578    -6.8552     1.8738 H       
  42 H42            1.5964    -8.0472     0.7775 H       
  43 H43            3.2684    -6.3811     1.5373 H       
  44 H44            4.0653    -5.6892    -0.7065 H       
  45 H45            3.4695    -7.3663    -0.7293 H       
  46 H46            2.6231    -6.0946    -2.6825 H       
  47 H47            1.0488    -4.2145    -2.3141 H       
  48 H48            2.6517    -3.8486    -1.6320 H       
  49 H49            1.2196    -7.8799    -1.6867 H       
  50 H50            0.2125    -6.5687    -2.3460 H       
  51 H51            3.0285    -4.0159     0.8322 H       
  52 H52            1.6941    -4.5010     1.9057 H       
  53 H53           -1.7569    -7.0771     0.0896 H       
  54 H54           -0.8833   -11.5080    -0.3456 H       
  55 H55           -2.9152   -12.9237    -0.1301 H       
  56 H56           -5.1002   -11.8161     0.2800 H       
  57 H57           -5.7356    -9.0740     1.6059 H       
  58 H58           -5.5634    -8.1785     0.0772 H       
  59 H59           -6.3739    -9.7631     0.0940 H       
  60 H60            0.0062    -0.6303     2.7190 H       
  61 H61            1.6933    -1.1467     2.4835 H       
  62 H62            1.3404     0.4756     3.1255 H       
@<TRIPOS>BOND
   1    1    2 1
   2    1    9 2
   3    2    3 1
   4    2   33 1
   5    3    4 2
   6    3   10 1
   7    4    5 ar
   8    4    9 ar
   9    5    6 ar
  10    5   34 1
  11    6    7 ar
  12    6   35 1
  13    7    8 ar
  14    7   36 1
  15    8    9 ar
  16    8   37 1
  17   10   11 2
  18   10   12 am
  19   12   13 1
  20   12   38 1
  21   13   14 1
  22   13   20 1
  23   13   22 1
  24   14   15 1
  25   14   39 1
  26   14   40 1
  27   15   16 1
  28   15   21 1
  29   15   23 1
  30   16   17 1
  31   16   41 1
  32   16   42 1
  33   17   18 1
  34   17   22 1
  35   17   43 1
  36   18   19 1
  37   18   44 1
  38   18   45 1
  39   19   20 1
  40   19   21 1
  41   19   46 1
  42   20   47 1
  43   20   48 1
  44   21   49 1
  45   21   50 1
  46   22   51 1
  47   22   52 1
  48   23   24 am
  49   23   53 1
  50   24   25 2
  51   24   26 1
  52   26   27 ar
  53   26   31 ar
  54   27   28 ar
  55   27   54 1
  56   28   29 ar
  57   28   55 1
  58   29   30 ar
  59   29   56 1
  60   30   31 ar
  61   30   32 1
  62   32   57 1
  63   32   58 1
  64   32   59 1
  65   33   60 1
  66   33   61 1
  67   33   62 1

#	End of record

