#	Name: ASD01180284
#	Creating user name:	WinNT
#	Creation time:	15. 06. 2019 19:07

#	Modifying user name:	WinNT
#	Modification time:	15. 06. 2019 19:07

#	Program:	/corina/corina34_cracker 3.40 0067  02.08.2006

@<TRIPOS>MOLECULE
ASD01180284
  66   69    0    0    0
SMALL
NO_CHARGES


@<TRIPOS>ATOM
   1 C1            -0.0184     1.5028     0.0103 C.2     
   2 C2             0.0021    -0.0041     0.0020 C.3     
   3 C3             1.4513    -0.4944    -0.0145 C.3     
   4 O4             1.0197     2.1211     0.0037 O.2     
   5 O5            -1.1898     2.1580     0.0194 O.3     
   6 C6             2.6473    -2.6171    -0.0373 C.2     
   7 C7             2.6673    -4.0924    -0.0454 C.ar    
   8 C8             3.8864    -4.7877    -0.0608 C.ar    
   9 C9             3.8577    -6.1559    -0.0679 C.ar    
  10 C10            2.6289    -6.8141    -0.0597 C.ar    
  11 N11            1.4912    -6.1331    -0.0456 N.ar    
  12 C12            1.4744    -4.8165    -0.0321 C.ar    
  13 O13            3.6920    -1.9949    -0.0439 O.2     
  14 N14            1.4712    -1.9592    -0.0225 N.am    
  15 N15            2.5959    -8.1983    -0.0669 N.pl3   
  16 C16            3.8430    -8.9612     0.0277 C.3     
  17 C17            4.7428    -9.7165     4.1386 C.ar    
  18 C18            3.9701   -10.6218     3.4141 C.ar    
  19 C19            3.6829   -10.3731     2.0873 C.ar    
  20 C20            4.1603    -9.2275     1.4766 C.ar    
  21 C21            4.9282    -8.3256     2.1909 C.ar    
  22 C22            5.2215    -8.5643     3.5183 C.ar    
  23 C23            5.0497    -9.9754     5.5671 C.ar    
  24 C24            5.8225    -9.0701     6.2915 C.ar    
  25 C25            6.1049    -9.3160     7.6199 C.ar    
  26 C26            5.6228   -10.4588     8.2321 C.ar    
  27 C27            4.8556   -11.3612     7.5176 C.ar    
  28 C28            4.5615   -11.1220     6.1905 C.ar    
  29 C29            5.9349   -10.7221     9.6827 C.3     
  30 F30            4.9393   -10.1537    10.4846 F       
  31 F31            5.9826   -12.1022     9.9065 F       
  32 F32            7.1727   -10.1546    10.0038 F       
  33 C33           -0.9411    -9.1916     0.8602 C.3     
  34 C34            0.4237    -8.5159     1.0168 C.3     
  35 C35            1.3139    -8.8999    -0.1691 C.3     
  36 C36            0.6127    -8.4991    -1.4706 C.3     
  37 C37           -0.7594    -9.1755    -1.5311 C.3     
  38 O38           -1.5248    -8.8005    -0.3841 O.3     
  39 H39           -0.4983    -0.3791     0.8948 H       
  40 H40           -0.5153    -0.3696    -0.8850 H       
  41 H41            1.9516    -0.1193    -0.9073 H       
  42 H42            1.9686    -0.1289     0.8726 H       
  43 H43           -1.1523     3.1243     0.0245 H       
  44 H44            4.8259    -4.2550    -0.0672 H       
  45 H45            4.7783    -6.7204    -0.0801 H       
  46 H46            0.5300    -4.2929    -0.0154 H       
  47 H47            0.6378    -2.4556    -0.0172 H       
  48 H48            3.7303    -9.9085    -0.4996 H       
  49 H49            4.6540    -8.3889    -0.4226 H       
  50 H50            3.5969   -11.5166     3.8900 H       
  51 H51            3.0841   -11.0742     1.5248 H       
  52 H52            5.2987    -7.4328     1.7091 H       
  53 H53            5.8205    -7.8591     4.0752 H       
  54 H54            6.2000    -8.1778     5.8143 H       
  55 H55            6.7037    -8.6149     8.1824 H       
  56 H56            4.4820   -12.2521     8.0004 H       
  57 H57            3.9581   -11.8246     5.6349 H       
  58 H58           -0.8150   -10.2741     0.8783 H       
  59 H59           -1.5933    -8.8878     1.6791 H       
  60 H60            0.2939    -7.4338     1.0395 H       
  61 H61            0.8899    -8.8473     1.9447 H       
  62 H62            1.4858    -9.9762    -0.1624 H       
  63 H63            0.4868    -7.4168    -1.4982 H       
  64 H64            1.2141    -8.8186    -2.3217 H       
  65 H65           -1.2806    -8.8601    -2.4350 H       
  66 H66           -0.6308   -10.2578    -1.5444 H       
@<TRIPOS>BOND
   1    1    2 1
   2    1    4 2
   3    1    5 1
   4    2    3 1
   5    2   39 1
   6    2   40 1
   7    3   14 1
   8    3   41 1
   9    3   42 1
  10    5   43 1
  11    6    7 1
  12    6   13 2
  13    6   14 am
  14    7    8 ar
  15    7   12 ar
  16    8    9 ar
  17    8   44 1
  18    9   10 ar
  19    9   45 1
  20   10   11 ar
  21   10   15 1
  22   11   12 ar
  23   12   46 1
  24   14   47 1
  25   15   16 1
  26   15   35 1
  27   16   20 1
  28   16   48 1
  29   16   49 1
  30   17   18 ar
  31   17   22 ar
  32   17   23 1
  33   18   19 ar
  34   18   50 1
  35   19   20 ar
  36   19   51 1
  37   20   21 ar
  38   21   22 ar
  39   21   52 1
  40   22   53 1
  41   23   24 ar
  42   23   28 ar
  43   24   25 ar
  44   24   54 1
  45   25   26 ar
  46   25   55 1
  47   26   27 ar
  48   26   29 1
  49   27   28 ar
  50   27   56 1
  51   28   57 1
  52   29   30 1
  53   29   31 1
  54   29   32 1
  55   33   34 1
  56   33   38 1
  57   33   58 1
  58   33   59 1
  59   34   35 1
  60   34   60 1
  61   34   61 1
  62   35   36 1
  63   35   62 1
  64   36   37 1
  65   36   63 1
  66   36   64 1
  67   37   38 1
  68   37   65 1
  69   37   66 1

#	End of record

