#	Name: ASD03092879
#	Creating user name:	WinNT
#	Creation time:	15. 06. 2019 20:33

#	Modifying user name:	WinNT
#	Modification time:	15. 06. 2019 20:33

#	Program:	/corina/corina34_cracker 3.40 0067  02.08.2006

@<TRIPOS>MOLECULE
ASD03092879
  49   51    0    0    0
SMALL
NO_CHARGES


@<TRIPOS>ATOM
   1 C1            -0.0173     1.4248     0.0099 C.3     
   2 O2             0.0021    -0.0041     0.0020 O.3     
   3 C3             0.6264    -0.6190     1.0425 C.ar    
   4 C4             1.2018     0.1361     2.0503 C.ar    
   5 C5             1.8366    -0.4900     3.1080 C.ar    
   6 C6             1.8990    -1.8706     3.1623 C.ar    
   7 Cl7            2.6976    -2.6500     4.4921 Cl      
   8 C8             1.3259    -2.6319     2.1591 C.ar    
   9 C9             0.6832    -2.0102     1.0990 C.ar    
  10 N10            0.0976    -2.7779     0.0859 N.pl3   
  11 C11            0.1583    -4.2404     0.1472 C.3     
  12 C12           -0.5520    -4.8319    -1.0720 C.3     
  13 H13           -0.5326    -4.2167    -1.9717 H       
  14 C14           -1.8028    -5.6761    -0.8202 C.3     
  15 H15           -2.1198    -5.8102     0.2140 H       
  16 C16           -2.9139    -5.5936    -1.8350 C.ar    
  17 C17           -2.7117    -4.9261    -3.0286 C.ar    
  18 C18           -3.7309    -4.8504    -3.9594 C.ar    
  19 C19           -4.9521    -5.4425    -3.6968 C.ar    
  20 C20           -5.1540    -6.1107    -2.5037 C.ar    
  21 C21           -4.1335    -6.1901    -1.5747 C.ar    
  22 S22           -6.2516    -5.3449    -4.8828 S.o2    
  23 N23           -6.1058    -6.6597    -5.8790 N.am    
  24 O24           -7.4649    -5.5188    -4.1639 O.2     
  25 O25           -5.9794    -4.2028    -5.6833 O.2     
  26 C26           -0.4985    -6.3502    -1.2532 C.3     
  27 C27           -0.4225    -6.8888    -2.6832 C.3     
  28 C28            0.2612    -7.1608    -0.2012 C.3     
  29 H29            1.0053     1.8021     0.0021 H       
  30 H30           -0.5445     1.7859    -0.8732 H       
  31 H31           -0.5275     1.7763     0.9067 H       
  32 H32            1.1554     1.2143     2.0105 H       
  33 H33            2.2848     0.1008     3.8931 H       
  34 H34            1.3755    -3.7098     2.2036 H       
  35 H35           -0.3485    -2.3418    -0.6568 H       
  36 H36            1.2001    -4.5609     0.1517 H       
  37 H37           -0.3322    -4.5866     1.0569 H       
  38 H38           -1.7576    -4.4636    -3.2337 H       
  39 H39           -3.5731    -4.3284    -4.8916 H       
  40 H40           -6.1083    -6.5729    -2.2984 H       
  41 H41           -4.2900    -6.7154    -0.6441 H       
  42 H42           -5.3915    -7.3001    -5.7354 H       
  43 H43           -6.7346    -6.7894    -6.6061 H       
  44 H44            0.4774    -6.5091    -3.1671 H       
  45 H45           -0.3905    -7.9781    -2.6599 H       
  46 H46           -1.3002    -6.5629    -3.2413 H       
  47 H47           -0.1933    -7.0032     0.7769 H       
  48 H48            0.2166    -8.2196    -0.4563 H       
  49 H49            1.3017    -6.8371    -0.1747 H       
@<TRIPOS>BOND
   1    1    2 1
   2    1   29 1
   3    1   30 1
   4    1   31 1
   5    2    3 1
   6    3    9 ar
   7    3    4 ar
   8    4    5 ar
   9    4   32 1
  10    5    6 ar
  11    5   33 1
  12    6    7 1
  13    6    8 ar
  14    8    9 ar
  15    8   34 1
  16    9   10 1
  17   10   11 1
  18   10   35 1
  19   11   12 1
  20   11   36 1
  21   11   37 1
  22   12   13 1
  23   12   26 1
  24   12   14 1
  25   14   15 1
  26   14   16 1
  27   14   26 1
  28   16   21 ar
  29   16   17 ar
  30   17   18 ar
  31   17   38 1
  32   18   19 ar
  33   18   39 1
  34   19   20 ar
  35   19   22 1
  36   20   21 ar
  37   20   40 1
  38   21   41 1
  39   22   23 am
  40   22   24 2
  41   22   25 2
  42   23   42 1
  43   23   43 1
  44   26   27 1
  45   26   28 1
  46   27   44 1
  47   27   45 1
  48   27   46 1
  49   28   47 1
  50   28   48 1
  51   28   49 1

#	End of record

