#	Name: ASD01208939
#	Creating user name:	WinNT
#	Creation time:	15. 06. 2019 19:10

#	Modifying user name:	WinNT
#	Modification time:	15. 06. 2019 19:10

#	Program:	/corina/corina34_cracker 3.40 0067  02.08.2006

@<TRIPOS>MOLECULE
ASD01208939
  55   58    0    0    0
SMALL
NO_CHARGES


@<TRIPOS>ATOM
   1 C1            -2.1633     1.6100    -0.9626 C.3     
   2 C2            -2.1462     0.0853    -1.1086 C.3     
   3 C3            -1.4119    -0.2847    -2.4010 C.3     
   4 C4            -2.0976     0.4045    -3.5835 C.3     
   5 O5            -2.1067     1.8174    -3.3697 O.3     
   6 C6            -2.8199     2.2260    -2.2007 C.3     
   7 C7            -1.4215    -0.5353     0.0875 C.3     
   8 C8            -1.5299    -2.0597     0.0146 C.3     
   9 C9            -0.7065    -2.6752     1.1166 C.2     
  10 N10            0.6325    -2.5222     1.1230 N.am    
  11 C11            1.4022    -3.1746     2.0798 C.2     
  12 N12           -2.9311    -2.4577     0.1715 N.pl3   
  13 N13            2.6921    -3.0956     2.1742 N.2     
  14 C14            3.2636    -3.7826     3.1466 C.2     
  15 C15            2.4142    -4.4748     3.9098 C.2     
  16 S16            0.7833    -4.1914     3.3069 S.3     
  17 Cl17           2.8418    -5.4750     5.2627 Cl      
  18 N18           -3.8364    -2.7133    -0.8665 N.2     
  19 C19           -4.9863    -3.0403    -0.3348 C.2     
  20 C20           -4.8503    -3.0036     1.0568 C.2     
  21 C21           -3.5760    -2.6484     1.3414 C.2     
  22 S22           -6.1132    -3.3637     2.2316 S.o2    
  23 C23           -5.9575    -5.1459     2.5317 C.3     
  24 O24           -5.7362    -2.6285     3.3878 O.2     
  25 O25           -7.3234    -3.0777     1.5440 O.2     
  26 O26           -1.2489    -3.3082     1.9976 O.2     
  27 C27           -7.0908    -5.6259     3.4552 C.3     
  28 C28           -7.8936    -6.6753     2.6589 C.3     
  29 C29           -6.8899    -7.1994     1.6019 C.3     
  30 C30           -6.1110    -5.9203     1.2064 C.3     
  31 H31           -2.7318     1.8845    -0.0741 H       
  32 H32           -1.1416     1.9785    -0.8707 H       
  33 H33           -3.1692    -0.2885    -1.1507 H       
  34 H34           -0.3750     0.0456    -2.3381 H       
  35 H35           -1.4431    -1.3652    -2.5411 H       
  36 H36           -1.5536     0.1792    -4.5009 H       
  37 H37           -3.1224     0.0434    -3.6704 H       
  38 H38           -3.8542     1.8887    -2.2695 H       
  39 H39           -2.7964     3.3129    -2.1219 H       
  40 H40           -0.3712    -0.2444     0.0668 H       
  41 H41           -1.8782    -0.1824     1.0121 H       
  42 H42           -1.1603    -2.4046    -0.9511 H       
  43 H43            1.0593    -1.9570     0.4603 H       
  44 H44            4.3311    -3.7848     3.3107 H       
  45 H45           -5.8852    -3.2944    -0.8768 H       
  46 H46           -3.1529    -2.5312     2.3282 H       
  47 H47           -4.9899    -5.3651     2.9831 H       
  48 H48           -6.6732    -6.0788     4.3544 H       
  49 H49           -7.7344    -4.7880     3.7231 H       
  50 H50           -8.2166    -7.4853     3.3128 H       
  51 H51           -8.7516    -6.2109     2.1728 H       
  52 H52           -6.2200    -7.9399     2.0391 H       
  53 H53           -7.4159    -7.6130     0.7415 H       
  54 H54           -6.6812    -5.3340     0.4858 H       
  55 H55           -5.1332    -6.1793     0.8004 H       
@<TRIPOS>BOND
   1    1    2 1
   2    1    6 1
   3    1   31 1
   4    1   32 1
   5    2    3 1
   6    2    7 1
   7    2   33 1
   8    3    4 1
   9    3   34 1
  10    3   35 1
  11    4    5 1
  12    4   36 1
  13    4   37 1
  14    5    6 1
  15    6   38 1
  16    6   39 1
  17    7    8 1
  18    7   40 1
  19    7   41 1
  20    8    9 1
  21    8   12 1
  22    8   42 1
  23    9   10 am
  24    9   26 2
  25   10   11 1
  26   10   43 1
  27   11   13 2
  28   11   16 1
  29   12   18 1
  30   12   21 1
  31   13   14 1
  32   14   15 2
  33   14   44 1
  34   15   16 1
  35   15   17 1
  36   18   19 2
  37   19   20 1
  38   19   45 1
  39   20   21 2
  40   20   22 1
  41   21   46 1
  42   22   23 1
  43   22   24 2
  44   22   25 2
  45   23   27 1
  46   23   30 1
  47   23   47 1
  48   27   28 1
  49   27   48 1
  50   27   49 1
  51   28   29 1
  52   28   50 1
  53   28   51 1
  54   29   30 1
  55   29   52 1
  56   29   53 1
  57   30   54 1
  58   30   55 1

#	End of record

