#	Name: ASD01880962
#	Creating user name:	WinNT
#	Creation time:	15. 06. 2019 19:41

#	Modifying user name:	WinNT
#	Modification time:	15. 06. 2019 19:41

#	Program:	/corina/corina34_cracker 3.40 0067  02.08.2006

@<TRIPOS>MOLECULE
ASD01880962
  48   51    0    0    0
SMALL
NO_CHARGES


@<TRIPOS>ATOM
   1 N1            -0.3160     1.5128    -0.3900 N.ar    
   2 C2            -0.5293     0.2200    -0.2377 C.ar    
   3 N3             0.4523    -0.6174     0.0380 N.ar    
   4 C4             1.6953    -0.1838     0.1715 C.ar    
   5 C5             1.9582     1.1685     0.0180 C.ar    
   6 C6             0.9016     2.0174    -0.2707 C.ar    
   7 C7             3.3598     1.7030     0.1625 C.3     
   8 O8             4.2693     0.6144     0.3351 O.3     
   9 C9             5.5822     0.9257     0.4809 C.ar    
  10 C10            6.5215    -0.0869     0.6531 C.ar    
  11 C11            7.8492     0.2280     0.8000 C.ar    
  12 C12            8.2669     1.5631     0.7781 C.ar    
  13 C13            7.3192     2.5774     0.6048 C.ar    
  14 C14            5.9874     2.2540     0.4524 C.ar    
  15 C15            9.0920    -0.6034     0.9993 C.3     
  16 N16           10.2091     0.3442     1.0850 N.am    
  17 C17            9.7281     1.5927     0.9569 C.2     
  18 O18           10.4039     2.6032     0.9843 O.2     
  19 Cl19          -2.1440    -0.3956    -0.4036 Cl      
  20 Cl20           7.8195     4.2395     0.5756 Cl      
  21 C21            1.1361     3.4956    -0.4469 C.3     
  22 C22            0.8801     4.2039     0.8585 C.ar    
  23 C23            1.9298     4.4710     1.7173 C.ar    
  24 C24            1.6950     5.1207     2.9147 C.ar    
  25 C25            0.4106     5.5036     3.2530 C.ar    
  26 C26           -0.6390     5.2373     2.3937 C.ar    
  27 C27           -0.4036     4.5914     1.1944 C.ar    
  28 C28           12.2832    -0.2142    -0.0844 C.3     
  29 C29           11.6170    -0.0119     1.2780 C.3     
  30 H30            2.4943    -0.8744     0.3975 H       
  31 H31            3.6292     2.2631    -0.7329 H       
  32 H32            3.4104     2.3599     1.0309 H       
  33 H33            6.2058    -1.1196     0.6713 H       
  34 H34            5.2556     3.0369     0.3183 H       
  35 H35            9.0152    -1.1767     1.9231 H       
  36 H36            9.2339    -1.2742     0.1520 H       
  37 H37            2.1673     3.6655    -0.7563 H       
  38 H38            0.4596     3.8825    -1.2089 H       
  39 H39            2.9333     4.1719     1.4530 H       
  40 H40            2.5151     5.3288     3.5860 H       
  41 H41            0.2270     6.0105     4.1888 H       
  42 H42           -1.6426     5.5361     2.6582 H       
  43 H43           -1.2236     4.3834     0.5231 H       
  44 H44           13.3307    -0.4792     0.0592 H       
  45 H45           11.7760    -1.0157    -0.6215 H       
  46 H46           12.2176     0.7081    -0.6615 H       
  47 H47           12.1242     0.7896     1.8150 H       
  48 H48           11.6826    -0.9343     1.8551 H       
@<TRIPOS>BOND
   1    1    2 ar
   2    1    6 ar
   3    2    3 ar
   4    2   19 1
   5    3    4 ar
   6    4    5 ar
   7    4   30 1
   8    5    6 ar
   9    5    7 1
  10    6   21 1
  11    7    8 1
  12    7   31 1
  13    7   32 1
  14    8    9 1
  15    9   10 ar
  16    9   14 ar
  17   10   11 ar
  18   10   33 1
  19   11   12 ar
  20   11   15 1
  21   12   13 ar
  22   12   17 1
  23   13   14 ar
  24   13   20 1
  25   14   34 1
  26   15   16 1
  27   15   35 1
  28   15   36 1
  29   16   17 am
  30   16   29 1
  31   17   18 2
  32   21   22 1
  33   21   37 1
  34   21   38 1
  35   22   23 ar
  36   22   27 ar
  37   23   24 ar
  38   23   39 1
  39   24   25 ar
  40   24   40 1
  41   25   26 ar
  42   25   41 1
  43   26   27 ar
  44   26   42 1
  45   27   43 1
  46   28   29 1
  47   28   44 1
  48   28   45 1
  49   28   46 1
  50   29   47 1
  51   29   48 1

#	End of record

