#	Name: ASD01812628
#	Creating user name:	WinNT
#	Creation time:	15. 06. 2019 19:28

#	Modifying user name:	WinNT
#	Modification time:	15. 06. 2019 19:28

#	Program:	/corina/corina34_cracker 3.40 0067  02.08.2006

@<TRIPOS>MOLECULE
ASD01812628
  54   58    0    0    0
SMALL
NO_CHARGES


@<TRIPOS>ATOM
   1 O1             0.1105     1.1203     0.0579 O.3     
   2 C2             0.0710    -0.2353     0.0349 C.ar    
   3 C3             1.2493    -0.9667     0.0149 C.ar    
   4 C4             1.2112    -2.3469    -0.0085 C.ar    
   5 C5            -0.0047    -3.0130    -0.0116 C.ar    
   6 C6            -1.1807    -2.3018     0.0085 C.ar    
   7 C7            -1.1611    -0.9045     0.0372 C.ar    
   8 C8            -2.6336    -2.7071     0.0107 C.3     
   9 N9            -3.4065    -1.4600     0.0368 N.am    
  10 C10           -2.5519    -0.4226     0.0603 C.2     
  11 C11           -4.8682    -1.3619     0.0472 C.3     
  12 O12           -2.8810     0.7477     0.0840 O.2     
  13 C13            1.3270     1.7225     0.0604 C.ar    
  14 C14            1.9682     2.0088     1.2728 C.ar    
  15 C15            1.3437     1.6678     2.5155 C.1     
  16 C16            1.9446     2.0526    -1.1389 C.ar    
  17 C17            3.1840     2.6655    -1.1336 C.ar    
  18 C18            3.8176     2.9538     0.0640 C.ar    
  19 C19            3.2207     2.6286     1.2627 C.ar    
  20 N20            0.8483     1.3973     3.5014 N.1     
  21 F21            1.3342     1.7742    -2.3115 F       
  22 C22           -5.3609    -1.3529     1.4713 C.ar    
  23 C23           -5.5057    -0.1517     2.1424 C.ar    
  24 C24           -5.9564    -0.1366     3.4463 C.ar    
  25 C25           -6.2664    -1.3362     4.0881 C.ar    
  26 C26           -6.1182    -2.5443     3.4056 C.ar    
  27 C27           -5.6720    -2.5454     2.1001 C.ar    
  28 C28           -6.7495    -1.3274     5.4858 C.2     
  29 S29           -6.0381    -0.4294     6.8245 S.3     
  30 C30           -7.2287    -1.0471     7.8844 C.2     
  31 N31           -8.0353    -1.8289     7.2476 N.2     
  32 C32           -7.8181    -2.0015     5.9626 C.2     
  33 C33           -7.3233    -0.7253     9.3536 C.3     
  34 C34           -8.6847    -2.8793     5.0969 C.3     
  35 H35            2.2003    -0.4548     0.0172 H       
  36 H36            2.1327    -2.9100    -0.0247 H       
  37 H37           -0.0279    -4.0926    -0.0303 H       
  38 H38           -2.8661    -3.2732    -0.8913 H       
  39 H39           -2.8549    -3.3038     0.8956 H       
  40 H40           -5.1741    -0.4409    -0.4490 H       
  41 H41           -5.2934    -2.2166    -0.4790 H       
  42 H42            3.6609     2.9205    -2.0685 H       
  43 H43            4.7858     3.4324     0.0581 H       
  44 H44            3.7206     2.8522     2.1936 H       
  45 H45           -5.2651     0.7760     1.6446 H       
  46 H46           -6.0687     0.8017     3.9692 H       
  47 H47           -6.3561    -3.4762     3.8970 H       
  48 H48           -5.5610    -3.4794     1.5693 H       
  49 H49           -7.9528     0.1535     9.4933 H       
  50 H50           -7.7589    -1.5722     9.8838 H       
  51 H51           -6.3265    -0.5244     9.7464 H       
  52 H52           -8.2399    -3.8719     5.0257 H       
  53 H53           -9.6783    -2.9572     5.5381 H       
  54 H54           -8.7625    -2.4438     4.1007 H       
@<TRIPOS>BOND
   1    1    2 1
   2    1   13 1
   3    2    3 ar
   4    2    7 ar
   5    3    4 ar
   6    3   35 1
   7    4    5 ar
   8    4   36 1
   9    5    6 ar
  10    5   37 1
  11    6    8 1
  12    6    7 ar
  13    7   10 1
  14    8    9 1
  15    8   38 1
  16    8   39 1
  17    9   10 am
  18    9   11 1
  19   10   12 2
  20   11   22 1
  21   11   40 1
  22   11   41 1
  23   13   16 ar
  24   13   14 ar
  25   14   15 1
  26   14   19 ar
  27   15   20 3
  28   16   17 ar
  29   16   21 1
  30   17   18 ar
  31   17   42 1
  32   18   19 ar
  33   18   43 1
  34   19   44 1
  35   22   23 ar
  36   22   27 ar
  37   23   24 ar
  38   23   45 1
  39   24   25 ar
  40   24   46 1
  41   25   26 ar
  42   25   28 1
  43   26   27 ar
  44   26   47 1
  45   27   48 1
  46   28   29 1
  47   28   32 2
  48   29   30 1
  49   30   31 2
  50   30   33 1
  51   31   32 1
  52   32   34 1
  53   33   49 1
  54   33   50 1
  55   33   51 1
  56   34   52 1
  57   34   53 1
  58   34   54 1

#	End of record

