#	Name: ASD01001225
#	Creating user name:	WinNT
#	Creation time:	15. 06. 2019 18:55

#	Modifying user name:	WinNT
#	Modification time:	15. 06. 2019 18:55

#	Program:	/corina/corina34_cracker 3.40 0067  02.08.2006

@<TRIPOS>MOLECULE
ASD01001225
  70   73    0    0    0
SMALL
NO_CHARGES


@<TRIPOS>ATOM
   1 C1             1.1113     1.0176     0.2076 C.2     
   2 C2             0.5393    -0.3613     0.0013 C.3     
   3 N3            -0.4785    -0.6254     1.0214 N.am    
   4 C4            -0.0964    -0.4472    -1.3877 C.3     
   5 C5             0.9857    -0.2734    -2.4554 C.3     
   6 C6            -0.7667    -1.8119    -1.5583 C.3     
   7 C7            -0.3288    -1.6613     1.8704 C.2     
   8 O8             0.5859    -2.4467     1.7156 O.2     
   9 C9            -1.6591     0.2366     1.1185 C.3     
  10 C10           -2.7103    -0.2222     0.1059 C.3     
  11 C11           -4.0010     0.5722     0.3153 C.3     
  12 N12           -5.0103     0.1317    -0.6569 N.3     
  13 C13           -1.2772    -1.8424     2.9901 C.ar    
  14 C14           -0.8173    -2.2737     4.2353 C.ar    
  15 C15           -1.7075    -2.4402     5.2761 C.ar    
  16 C16           -3.0534    -2.1812     5.0874 C.ar    
  17 C17           -3.5158    -1.7534     3.8555 C.ar    
  18 C18           -2.6354    -1.5773     2.8081 C.ar    
  19 C19           -4.0202    -2.3662     6.2286 C.3     
  20 N20            1.9970     1.2379     1.2270 N.am    
  21 C21            2.5164     2.4674     1.4217 C.2     
  22 C22            1.2696     3.2338    -0.4157 C.2     
  23 N23            0.7616     1.9868    -0.5898 N.2     
  24 O24            3.3037     2.6638     2.3269 O.2     
  25 C25            2.3822     0.1345     2.1103 C.3     
  26 C26            3.6657    -0.4809     1.6151 C.ar    
  27 C27            4.8805     0.0770     1.9670 C.ar    
  28 C28            6.0578    -0.4874     1.5127 C.ar    
  29 C29            6.0202    -1.6100     0.7069 C.ar    
  30 C30            4.8054    -2.1684     0.3558 C.ar    
  31 C31            3.6283    -1.6065     0.8136 C.ar    
  32 N32            2.1556     3.4761     0.6042 N.am    
  33 N33            2.5088     4.8283     0.5477 N.2     
  34 C34            1.8714     5.3897    -0.4496 C.2     
  35 C35            1.0809     4.4274    -1.0789 C.2     
  36 C36            1.9743     6.8386    -0.8511 C.3     
  37 Cl37           0.0511     4.6852    -2.4524 Cl      
  38 H38            1.3358    -1.1010     0.0828 H       
  39 H39           -0.8425     0.3401    -1.4951 H       
  40 H40            1.6868    -1.1063    -2.4011 H       
  41 H41            0.5226    -0.2521    -3.4419 H       
  42 H42            1.5185     0.6618    -2.2838 H       
  43 H43           -1.5375    -1.9357    -0.7977 H       
  44 H44           -1.2195    -1.8731    -2.5479 H       
  45 H45           -0.0205    -2.5992    -1.4509 H       
  46 H46           -2.0727     0.1743     2.1251 H       
  47 H47           -1.3750     1.2672     0.9056 H       
  48 H48           -2.3394    -0.0529    -0.9049 H       
  49 H49           -2.9107    -1.2844     0.2463 H       
  50 H50           -4.3720     0.4029     1.3261 H       
  51 H51           -3.8007     1.6344     0.1749 H       
  52 H52           -5.8728     0.6419    -0.5391 H       
  53 H53           -4.6650     0.2183    -1.6010 H       
  54 H54            0.2329    -2.4769     4.3837 H       
  55 H55           -1.3529    -2.7739     6.2401 H       
  56 H56           -4.5677    -1.5529     3.7148 H       
  57 H57           -2.9975    -1.2430     1.8471 H       
  58 H58           -4.1051    -1.4343     6.7876 H       
  59 H59           -4.9979    -2.6442     5.8350 H       
  60 H60           -3.6567    -3.1540     6.8885 H       
  61 H61            2.5275     0.5128     3.1222 H       
  62 H62            1.5954    -0.6198     2.1139 H       
  63 H63            4.9098     0.9541     2.5965 H       
  64 H64            7.0069    -0.0511     1.7870 H       
  65 H65            6.9399    -2.0505     0.3514 H       
  66 H66            4.7760    -3.0452    -0.2741 H       
  67 H67            2.6792    -2.0428     0.5393 H       
  68 H68            2.7793     6.9583    -1.5763 H       
  69 H69            1.0330     7.1599    -1.2969 H       
  70 H70            2.1852     7.4455     0.0293 H       
@<TRIPOS>BOND
   1    1    2 1
   2    1   20 1
   3    1   23 2
   4    2    3 1
   5    2    4 1
   6    2   38 1
   7    3    7 am
   8    3    9 1
   9    4    5 1
  10    4    6 1
  11    4   39 1
  12    5   40 1
  13    5   41 1
  14    5   42 1
  15    6   43 1
  16    6   44 1
  17    6   45 1
  18    7    8 2
  19    7   13 1
  20    9   10 1
  21    9   46 1
  22    9   47 1
  23   10   11 1
  24   10   48 1
  25   10   49 1
  26   11   12 1
  27   11   50 1
  28   11   51 1
  29   12   52 1
  30   12   53 1
  31   13   14 ar
  32   13   18 ar
  33   14   15 ar
  34   14   54 1
  35   15   16 ar
  36   15   55 1
  37   16   17 ar
  38   16   19 1
  39   17   18 ar
  40   17   56 1
  41   18   57 1
  42   19   58 1
  43   19   59 1
  44   19   60 1
  45   20   21 am
  46   20   25 1
  47   21   24 2
  48   21   32 am
  49   22   23 1
  50   22   32 1
  51   22   35 2
  52   25   26 1
  53   25   61 1
  54   25   62 1
  55   26   27 ar
  56   26   31 ar
  57   27   28 ar
  58   27   63 1
  59   28   29 ar
  60   28   64 1
  61   29   30 ar
  62   29   65 1
  63   30   31 ar
  64   30   66 1
  65   31   67 1
  66   32   33 1
  67   33   34 2
  68   34   35 1
  69   34   36 1
  70   35   37 1
  71   36   68 1
  72   36   69 1
  73   36   70 1

#	End of record

