#	Name: ASD01883891
#	Creating user name:	WinNT
#	Creation time:	15. 06. 2019 19:47

#	Modifying user name:	WinNT
#	Modification time:	15. 06. 2019 19:47

#	Program:	/corina/corina34_cracker 3.40 0067  02.08.2006

@<TRIPOS>MOLECULE
ASD01883891
  58   61    0    0    0
SMALL
NO_CHARGES


@<TRIPOS>ATOM
   1 C1            -0.0164     1.3604     0.0095 C.ar    
   2 C2             0.0021    -0.0041     0.0020 C.ar    
   3 C3             1.2243    -0.6894    -0.0133 C.ar    
   4 C4             2.4295     0.0362    -0.0209 C.ar    
   5 C5             2.3945     1.4196    -0.0131 C.ar    
   6 C6             1.1747     2.0814     0.0020 C.ar    
   7 C7             1.2469    -2.1542    -0.0209 C.2     
   8 O8             2.3069    -2.7445    -0.0342 O.2     
   9 C9            -0.0463    -2.9278    -0.0122 C.3     
  10 O10            3.6183    -0.6160    -0.0353 O.3     
  11 O11            1.1427     3.4377     0.0091 O.3     
  12 C12           -0.1454     4.0561     0.0243 C.3     
  13 C13            0.0168     5.5544     0.0303 C.ar    
  14 N14            0.2509     7.5544     1.2378 N.ar    
  15 C15            0.1089     6.2433     1.2246 C.ar    
  16 C16            0.0812     6.2584    -1.1627 C.ar    
  17 C17            0.2307     7.6356    -1.1088 C.ar    
  18 C18            0.3100     8.2568     0.1234 C.ar    
  19 C19            3.6796     2.2067    -0.0207 C.3     
  20 C20            4.1013     2.4808    -1.4656 C.3     
  21 C21            5.4060     3.2799    -1.4733 C.3     
  22 C22            0.4729     9.7533     0.1940 C.3     
  23 C23           -0.6217    10.3380     1.0489 C.ar    
  24 C24           -1.8160    10.7211     0.4723 C.ar    
  25 C25           -0.4301    10.4846     2.4107 C.ar    
  26 C26           -1.4308    11.0207     3.2012 C.ar    
  27 C27           -2.6265    11.4121     2.6341 C.ar    
  28 C28           -2.8269    11.2613     1.2636 C.ar    
  29 C29           -4.1132    11.6756     0.6488 C.2     
  30 N30           -5.1510    12.1982     1.2712 N.2     
  31 N31           -6.0672    12.4199     0.3924 N.pl3   
  32 N32           -5.6429    12.0543    -0.7667 N.2     
  33 N33           -4.4429    11.5963    -0.6480 N.2     
  34 H34           -0.9608     1.8843     0.0168 H       
  35 H35           -0.9261    -0.5563     0.0083 H       
  36 H36           -0.6305    -2.6688    -0.8953 H       
  37 H37            0.1693    -3.9962    -0.0197 H       
  38 H38           -0.6132    -2.6778     0.8846 H       
  39 H39            3.9549    -0.8007    -0.9228 H       
  40 H40           -0.7036     3.7547    -0.8621 H       
  41 H41           -0.6870     3.7457     0.9178 H       
  42 H42            0.0637     5.7019     2.1580 H       
  43 H43            0.0167     5.7460    -2.1112 H       
  44 H44            0.2848     8.2157    -2.0181 H       
  45 H45            3.5293     3.1526     0.4997 H       
  46 H46            4.4589     1.6348     0.4830 H       
  47 H47            4.2515     1.5349    -1.9859 H       
  48 H48            3.3220     3.0527    -1.9693 H       
  49 H49            5.7064     3.4752    -2.5027 H       
  50 H50            5.2558     4.2258    -0.9529 H       
  51 H51            6.1853     2.7080    -0.9696 H       
  52 H52            1.4424     9.9930     0.6308 H       
  53 H53            0.4131    10.1730    -0.8102 H       
  54 H54           -1.9662    10.6024    -0.5906 H       
  55 H55            0.5040    10.1793     2.8585 H       
  56 H56           -1.2762    11.1327     4.2642 H       
  57 H57           -3.4072    11.8301     3.2522 H       
  58 H58           -6.9397    12.8019     0.5757 H       
@<TRIPOS>BOND
   1    1    2 ar
   2    1    6 ar
   3    1   34 1
   4    2    3 ar
   5    2   35 1
   6    3    4 ar
   7    3    7 1
   8    4    5 ar
   9    4   10 1
  10    5    6 ar
  11    5   19 1
  12    6   11 1
  13    7    8 2
  14    7    9 1
  15    9   36 1
  16    9   37 1
  17    9   38 1
  18   10   39 1
  19   11   12 1
  20   12   13 1
  21   12   40 1
  22   12   41 1
  23   13   16 ar
  24   13   15 ar
  25   14   15 ar
  26   14   18 ar
  27   15   42 1
  28   16   17 ar
  29   16   43 1
  30   17   18 ar
  31   17   44 1
  32   18   22 1
  33   19   20 1
  34   19   45 1
  35   19   46 1
  36   20   21 1
  37   20   47 1
  38   20   48 1
  39   21   49 1
  40   21   50 1
  41   21   51 1
  42   22   23 1
  43   22   52 1
  44   22   53 1
  45   23   25 ar
  46   23   24 ar
  47   24   28 ar
  48   24   54 1
  49   25   26 ar
  50   25   55 1
  51   26   27 ar
  52   26   56 1
  53   27   28 ar
  54   27   57 1
  55   28   29 1
  56   29   30 2
  57   29   33 1
  58   30   31 1
  59   31   32 1
  60   31   58 1
  61   32   33 2

#	End of record

