#	Name: ASD01917555
#	Creating user name:	WinNT
#	Creation time:	15. 06. 2019 20:09

#	Modifying user name:	WinNT
#	Modification time:	15. 06. 2019 20:09

#	Program:	/corina/corina34_cracker 3.40 0067  02.08.2006

@<TRIPOS>MOLECULE
ASD01917555
  42   45    0    0    0
SMALL
NO_CHARGES


@<TRIPOS>ATOM
   1 N1             4.8219    -0.4106    -2.1399 N.ar    
   2 C2             5.2886     0.2867    -3.1572 C.ar    
   3 C3             5.1758     1.6664    -3.1838 C.ar    
   4 C4             4.5618     2.3156    -2.1220 C.ar    
   5 C5             4.0813     1.5472    -1.0668 C.ar    
   6 C6             4.2326     0.1684    -1.1130 C.ar    
   7 F7             5.6580     2.3720    -4.2301 F       
   8 O8             3.4732     2.1385    -0.0052 O.3     
   9 C9             3.4534     3.4978     0.0440 C.2     
  10 N10            2.2007     5.5129    -0.0219 N.pl3   
  11 C11            2.2716     4.1522    -0.0657 C.2     
  12 C12            4.6543     4.1994     0.2130 C.2     
  13 C13            4.6287     5.5875     0.2630 C.2     
  14 C14            3.3356     6.2650     0.1358 C.2     
  15 C15            5.8700     6.3587     0.4400 C.2     
  16 N16            5.8261     7.7049     0.4862 N.am    
  17 C17            6.9851     8.4316     0.7593 C.ar    
  18 N18            8.1436     7.8006     0.8646 N.ar    
  19 C19            6.9114     9.8111     0.9123 C.ar    
  20 C20            8.0672    10.5222     1.1826 C.ar    
  21 C21            9.2659     9.8228     1.2913 C.ar    
  22 C22            9.2642     8.4475     1.1214 C.ar    
  23 O23            6.9353     5.7809     0.5445 O.2     
  24 C24            1.1516     6.3893    -0.1073 C.2     
  25 C25            1.6639     7.6345    -0.0092 C.2     
  26 N26            2.9888     7.5393     0.1438 N.2     
  27 O27           10.4256    10.4820     1.5555 O.3     
  28 C28           11.6130     9.6929     1.6517 C.3     
  29 H29            5.7654    -0.2251    -3.9801 H       
  30 H30            4.4598     3.3907    -2.1150 H       
  31 H31            3.8628    -0.4369    -0.2985 H       
  32 H32            1.3633     3.5815    -0.1914 H       
  33 H33            5.5895     3.6669     0.3038 H       
  34 H34            4.9886     8.1686     0.3296 H       
  35 H35            5.9641    10.3216     0.8210 H       
  36 H36            8.0400    11.5947     1.3060 H       
  37 H37           10.1911     7.8988     1.2002 H       
  38 H38            0.1104     6.1327    -0.2356 H       
  39 H39            1.0974     8.5534    -0.0403 H       
  40 H40           12.4634    10.3405     1.8651 H       
  41 H41           11.5009     8.9641     2.4545 H       
  42 H42           11.7805     9.1720     0.7090 H       
@<TRIPOS>BOND
   1    1    2 ar
   2    1    6 ar
   3    2    3 ar
   4    2   29 1
   5    3    4 ar
   6    3    7 1
   7    4    5 ar
   8    4   30 1
   9    5    6 ar
  10    5    8 1
  11    6   31 1
  12    8    9 1
  13    9   12 1
  14    9   11 2
  15   10   11 1
  16   10   24 1
  17   10   14 1
  18   11   32 1
  19   12   13 2
  20   12   33 1
  21   13   14 1
  22   13   15 1
  23   14   26 2
  24   15   16 am
  25   15   23 2
  26   16   17 1
  27   16   34 1
  28   17   19 ar
  29   17   18 ar
  30   18   22 ar
  31   19   20 ar
  32   19   35 1
  33   20   21 ar
  34   20   36 1
  35   21   22 ar
  36   21   27 1
  37   22   37 1
  38   24   25 2
  39   24   38 1
  40   25   26 1
  41   25   39 1
  42   27   28 1
  43   28   40 1
  44   28   41 1
  45   28   42 1

#	End of record

