#	Name: ASD01680125
#	Creating user name:	WinNT
#	Creation time:	15. 06. 2019 19:22

#	Modifying user name:	WinNT
#	Modification time:	15. 06. 2019 19:22

#	Program:	/corina/corina34_cracker 3.40 0067  02.08.2006

@<TRIPOS>MOLECULE
ASD01680125
  92   94    0    0    0
SMALL
NO_CHARGES


@<TRIPOS>ATOM
   1 C1            -0.4708     1.3993    -0.0736 C.2     
   2 C2            -0.4542    -0.1058     0.0012 C.3     
   3 C3            -1.2415    -0.6837    -1.1764 C.3     
   4 O4             0.5670     2.0111    -0.1653 O.2     
   5 O5            -1.6390     2.0598    -0.0440 O.3     
   6 N6             0.9300    -0.5823    -0.0559 N.am    
   7 S7             1.7556    -0.8978     1.3445 S.o2    
   8 O8             3.0388    -1.3690     0.9563 O.2     
   9 O9             1.5639     0.2308     2.1863 O.2     
  10 C10            0.9468    -2.2499     2.1334 C.ar    
  11 C11            0.0130    -2.0136     3.1249 C.ar    
  12 C12           -0.6215    -3.0743     3.7438 C.ar    
  13 C13           -0.3226    -4.3714     3.3709 C.ar    
  14 C14            0.6105    -4.6078     2.3787 C.ar    
  15 C15            1.2418    -3.5469     1.7568 C.ar    
  16 C16            2.2553    -3.8043     0.6716 C.3     
  17 C17           -1.0136    -5.5279     4.0463 C.3     
  18 C18           -0.3129    -0.5995     3.5314 C.3     
  19 N19           -1.1258    -2.1442    -1.1715 N.am    
  20 C20           -1.7423    -2.8722    -2.1236 C.2     
  21 O21           -2.3928    -2.3183    -2.9844 O.2     
  22 C22           -1.6232    -4.3745    -2.1185 C.3     
  23 O23           -2.3586    -4.9143    -3.2185 O.3     
  24 N24           -4.6371    -6.8933    -3.4616 N.am    
  25 C25           -3.4920    -6.9832    -2.5375 C.3     
  26 C26           -2.3108    -6.3398    -3.3060 C.3     
  27 C27           -2.5858    -6.8175    -4.7563 C.3     
  28 C28           -4.1268    -6.8064    -4.8376 C.3     
  29 C29           -4.6137    -8.0080    -5.6500 C.3     
  30 N30           -3.9672    -8.0016    -6.9691 N.3     
  31 C31           -4.2616    -9.2810    -4.9243 C.ar    
  32 C32           -5.2675   -10.1433    -4.5302 C.ar    
  33 C33           -4.9329   -11.3118    -3.8636 C.ar    
  34 C34           -3.5930   -11.5705    -3.6172 C.ar    
  35 C35           -2.6426   -10.6614    -4.0412 C.ar    
  36 N36           -2.9972    -9.5619    -4.6773 N.ar    
  37 C37           -5.9367    -6.8962    -3.1045 C.2     
  38 C38           -6.3176    -6.8861    -1.6465 C.3     
  39 C39           -7.7086    -7.5006    -1.4784 C.3     
  40 C40           -8.0953    -7.4903     0.0019 C.3     
  41 C41           -9.4864    -8.1048     0.1700 C.3     
  42 C42           -9.8730    -8.0945     1.6503 C.3     
  43 C43          -11.2641    -8.7090     1.8183 C.3     
  44 C44          -11.6507    -8.6987     3.2986 C.3     
  45 O45           -6.7997    -6.9071    -3.9566 O.2     
  46 F46          -11.6633    -7.3809     3.7681 F       
  47 F47          -12.9227    -9.2606     3.4523 F       
  48 F48          -10.7198    -9.4451     4.0290 F       
  49 F49          -12.1950    -7.9626     1.0880 F       
  50 F50          -11.2515   -10.0268     1.3488 F       
  51 F51           -8.9421    -8.8409     2.3806 F       
  52 F52           -9.8855    -6.7767     2.1198 F       
  53 F53          -10.4173    -7.3584    -0.5604 F       
  54 F54           -9.4738    -9.4226    -0.2996 F       
  55 F55           -7.1644    -8.2367     0.7323 F       
  56 F56           -8.1078    -6.1725     0.4714 F       
  57 F57           -8.6396    -6.7542    -2.2088 F       
  58 F58           -7.6961    -8.8184    -1.9479 F       
  59 F59           -5.3867    -7.6325    -0.9161 F       
  60 F60           -6.3301    -5.5683    -1.1769 F       
  61 H61           -0.9110    -0.4281     0.9369 H       
  62 H62           -2.2906    -0.4021    -1.0853 H       
  63 H63           -0.8396    -0.2905    -2.1102 H       
  64 H64           -1.5991     3.0247    -0.0947 H       
  65 H65            1.3629    -0.7129    -0.9141 H       
  66 H66           -1.3505    -2.8897     4.5190 H       
  67 H67            0.8443    -5.6212     2.0876 H       
  68 H68            3.2579    -3.7843     1.0987 H       
  69 H69            2.0698    -4.7815     0.2256 H       
  70 H70            2.1712    -3.0334    -0.0944 H       
  71 H71           -1.9249    -5.7749     3.5017 H       
  72 H72           -0.3500    -6.3926     4.0554 H       
  73 H73           -1.2656    -5.2526     5.0705 H       
  74 H74           -0.9846    -0.1558     2.7966 H       
  75 H75           -0.7957    -0.6045     4.5087 H       
  76 H76            0.6060    -0.0154     3.5831 H       
  77 H77           -0.6055    -2.5871    -0.4831 H       
  78 H78           -0.5742    -4.6561    -2.2097 H       
  79 H79           -2.0252    -4.7677    -1.1848 H       
  80 H80           -3.6978    -6.4266    -1.6231 H       
  81 H81           -3.2717    -8.0254    -2.3067 H       
  82 H82           -1.3557    -6.7196    -2.9434 H       
  83 H83           -2.1565    -6.1234    -5.4789 H       
  84 H84           -2.1987    -7.8247    -4.9105 H       
  85 H85           -4.4669    -5.8805    -5.3014 H       
  86 H86           -5.6948    -7.9481    -5.7749 H       
  87 H87           -2.9637    -8.0564    -6.8803 H       
  88 H88           -4.3202    -8.7485    -7.5484 H       
  89 H89           -6.3011    -9.9094    -4.7387 H       
  90 H90           -5.6976   -12.0040    -3.5435 H       
  91 H91           -3.2960   -12.4709    -3.1000 H       
  92 H92           -1.5969   -10.8556    -3.8531 H       
@<TRIPOS>BOND
   1    1    2 1
   2    1    4 2
   3    1    5 1
   4    2    3 1
   5    2    6 1
   6    2   61 1
   7    3   19 1
   8    3   62 1
   9    3   63 1
  10    5   64 1
  11    6    7 am
  12    6   65 1
  13    7    8 2
  14    7    9 2
  15    7   10 1
  16   10   11 ar
  17   10   15 ar
  18   11   12 ar
  19   11   18 1
  20   12   13 ar
  21   12   66 1
  22   13   14 ar
  23   13   17 1
  24   14   15 ar
  25   14   67 1
  26   15   16 1
  27   16   68 1
  28   16   69 1
  29   16   70 1
  30   17   71 1
  31   17   72 1
  32   17   73 1
  33   18   74 1
  34   18   75 1
  35   18   76 1
  36   19   20 am
  37   19   77 1
  38   20   21 2
  39   20   22 1
  40   22   23 1
  41   22   78 1
  42   22   79 1
  43   23   26 1
  44   24   25 1
  45   24   28 1
  46   24   37 am
  47   25   26 1
  48   25   80 1
  49   25   81 1
  50   26   27 1
  51   26   82 1
  52   27   28 1
  53   27   83 1
  54   27   84 1
  55   28   29 1
  56   28   85 1
  57   29   30 1
  58   29   31 1
  59   29   86 1
  60   30   87 1
  61   30   88 1
  62   31   32 ar
  63   31   36 ar
  64   32   33 ar
  65   32   89 1
  66   33   34 ar
  67   33   90 1
  68   34   35 ar
  69   34   91 1
  70   35   36 ar
  71   35   92 1
  72   37   38 1
  73   37   45 2
  74   38   39 1
  75   38   59 1
  76   38   60 1
  77   39   40 1
  78   39   57 1
  79   39   58 1
  80   40   41 1
  81   40   55 1
  82   40   56 1
  83   41   42 1
  84   41   53 1
  85   41   54 1
  86   42   43 1
  87   42   51 1
  88   42   52 1
  89   43   44 1
  90   43   49 1
  91   43   50 1
  92   44   46 1
  93   44   47 1
  94   44   48 1

#	End of record

