#	Name: ASD07930739
#	Creating user name:	WinNT
#	Creation time:	15. 06. 2019 21:13

#	Modifying user name:	WinNT
#	Modification time:	15. 06. 2019 21:13

#	Program:	/corina/corina34_cracker 3.40 0067  02.08.2006

@<TRIPOS>MOLECULE
ASD07930739
  29   30    0    0    0
SMALL
NO_CHARGES


@<TRIPOS>ATOM
   1 C1            -0.0862     1.4516     0.2576 C.3     
   2 N2             0.6203    -0.2461    -2.0939 N.2     
   3 N3            -0.9712    -1.7130    -1.2125 N.pl3   
   4 C4            -0.9005    -2.8248    -0.2586 C.3     
   5 C5            -1.1285    -2.2885     1.1614 C.3     
   6 S6             0.1020    -0.9863     1.4846 S.o2    
   7 N7            -0.0380    -0.0081     0.1430 N.am    
   8 C8            -0.1071    -0.6443    -1.0883 C.2     
   9 C9             0.4788    -3.4819    -0.3413 C.3     
  10 O10           -0.3061    -0.1650     2.5700 O.2     
  11 O11            1.4211    -1.5092     1.4097 O.2     
  12 C12           -1.9634    -3.8404    -0.5898 C.2     
  13 C13           -2.8273    -3.6925    -1.6623 C.2     
  14 C14           -3.7083    -4.6829    -1.8149 C.2     
  15 S15           -3.4667    -5.8871    -0.5560 S.3     
  16 C16           -2.1405    -4.9538     0.1247 C.2     
  17 Br17          -5.0174    -4.7770    -3.1762 Br      
  18 Cl18          -1.2095    -5.4071     1.5181 Cl      
  19 H19            0.9258     1.8536     0.2084 H       
  20 H20           -0.6799     1.8609    -0.5597 H       
  21 H21           -0.5403     1.7265     1.2096 H       
  22 H22            1.2227     0.5069    -1.9886 H       
  23 H23           -1.6216    -1.7307    -1.9320 H       
  24 H24           -2.1330    -1.8727     1.2402 H       
  25 H25           -1.0070    -3.0962     1.8831 H       
  26 H26            1.2465    -2.7468    -0.0996 H       
  27 H27            0.5307    -4.3081     0.3679 H       
  28 H28            0.6417    -3.8589    -1.3509 H       
  29 H29           -2.7908    -2.8401    -2.3246 H       
@<TRIPOS>BOND
   1    1    7 1
   2    1   19 1
   3    1   20 1
   4    1   21 1
   5    2    8 2
   6    2   22 1
   7    3    4 1
   8    3    8 1
   9    3   23 1
  10    4    5 1
  11    4    9 1
  12    4   12 1
  13    5    6 1
  14    5   24 1
  15    5   25 1
  16    6    7 am
  17    6   10 2
  18    6   11 2
  19    7    8 1
  20    9   26 1
  21    9   27 1
  22    9   28 1
  23   12   13 1
  24   12   16 2
  25   13   14 2
  26   13   29 1
  27   14   15 1
  28   14   17 1
  29   15   16 1
  30   16   18 1

#	End of record

