#	Name: ASD01410756
#	Creating user name:	WinNT
#	Creation time:	15. 06. 2019 19:18

#	Modifying user name:	WinNT
#	Modification time:	15. 06. 2019 19:18

#	Program:	/corina/corina34_cracker 3.40 0067  02.08.2006

@<TRIPOS>MOLECULE
ASD01410756
  99  105    0    0    0
SMALL
NO_CHARGES


@<TRIPOS>ATOM
   1 C1            -0.2562     1.9025     0.5409 C.3     
   2 C2            -0.0429     0.4128     0.8918 C.3     
   3 N3            -0.5976     0.2934     2.2507 N.am    
   4 C4            -1.8045     1.1346     2.2801 C.3     
   5 C5            -1.6235     2.2153     1.1954 C.3     
   6 O6             0.7752     2.7101     1.1120 O.3     
   7 C7            -3.0218     0.2995     1.9768 C.2     
   8 O8            -2.9034    -0.8871     1.7556 O.2     
   9 N9            -4.2420     0.8712     1.9514 N.am    
  10 C10           -5.4140     0.0796     1.5694 C.3     
  11 C11           -5.4358    -0.4019     0.1416 C.2     
  12 N12           -4.4737    -0.0094    -0.7168 N.am    
  13 O13           -6.3190    -1.1428    -0.2351 O.2     
  14 S14           -4.4260    -0.6346    -2.2494 S.o2    
  15 C15           -5.9502    -0.0362    -3.0300 C.3     
  16 C16           -6.0263    -0.8344     2.6326 C.3     
  17 C17           -6.7535     0.4452     2.2121 C.3     
  18 C18           -6.2680    -0.5418    -4.4387 C.3     
  19 C19           -7.0785    -1.0473    -3.2435 C.3     
  20 O20           -3.2887    -0.0228    -2.8423 O.2     
  21 O21           -4.4838    -2.0412    -2.0560 O.2     
  22 C22           -6.6054    -2.1472     2.1719 C.2     
  23 C23           -6.1267    -3.2739     2.6381 C.2     
  24 C24            1.0129     3.9100     0.5265 C.ar    
  25 C25            2.0558     4.7479     0.9856 C.ar    
  26 C26            0.2526     4.3404    -0.5292 C.ar    
  27 C27            0.5187     5.5843    -1.1171 C.ar    
  28 N28            1.4934     6.3625    -0.6774 N.ar    
  29 C29            2.2708     5.9936     0.3457 C.ar    
  30 C30           -0.3086     6.0368    -2.2551 C.2     
  31 C31            3.3028     6.8296     0.8041 C.ar    
  32 C32            4.0877     6.4248     1.8596 C.ar    
  33 C33            3.8695     5.1912     2.4808 C.ar    
  34 C34            2.8739     4.3649     2.0585 C.ar    
  35 C35            3.5492     8.1614     0.1435 C.3     
  36 N36           -0.1683     7.1655    -2.8898 N.2     
  37 C37           -0.9958     7.4011    -3.8791 C.2     
  38 C38           -1.8992     6.4434    -4.1250 C.2     
  39 S39           -1.6379     5.1327    -2.9758 S.3     
  40 C40           -0.9345     8.6707    -4.6887 C.3     
  41 C41           -0.0968     8.4333    -5.9468 C.3     
  42 C42           -2.3506     9.0883    -5.0902 C.3     
  43 C43            1.4411     0.0749     0.8952 C.3     
  44 C44            1.6876    -1.1928     1.7127 C.3     
  45 C45            1.3263    -0.9479     3.1780 C.3     
  46 C46           -0.0785    -0.4078     3.2691 C.2     
  47 C47            1.4172    -2.2645     3.9520 C.3     
  48 C48            0.4397    -3.2773     3.3522 C.3     
  49 C49            2.8421    -2.8139     3.8585 C.3     
  50 O50           -0.7404    -0.6081     4.2654 O.2     
  51 O51            5.0858     7.2325     2.3028 O.3     
  52 C52            5.8657     6.7568     3.4016 C.3     
  53 H53           -0.3008     2.0424    -0.5392 H       
  54 H54           -0.5902    -0.2253     0.1981 H       
  55 H55           -1.9082     1.6030     3.2589 H       
  56 H56           -1.6088     3.2070     1.6477 H       
  57 H57           -2.4216     2.1472     0.4562 H       
  58 H58           -4.3442     1.8069     2.1861 H       
  59 H59           -3.8092     0.6395    -0.4367 H       
  60 H60           -6.2314     0.9886    -2.7877 H       
  61 H61           -5.5571    -0.8468     3.6164 H       
  62 H62           -6.7627     1.2745     2.9195 H       
  63 H63           -7.6505     0.3371     1.6024 H       
  64 H64           -6.7586     0.1503    -5.1230 H       
  65 H65           -5.5612    -1.2339    -4.8964 H       
  66 H66           -6.9050    -2.0720    -2.9150 H       
  67 H67           -8.1024    -0.6877    -3.1416 H       
  68 H68           -7.4151    -2.1591     1.4573 H       
  69 H69           -6.5417    -4.2147     2.3079 H       
  70 H70           -5.3170    -3.2621     3.3527 H       
  71 H71           -0.5488     3.7228    -0.9071 H       
  72 H72            4.4965     4.8919     3.3076 H       
  73 H73            2.7157     3.4149     2.5471 H       
  74 H74            2.9557     8.9288     0.6404 H       
  75 H75            4.6068     8.4144     0.2191 H       
  76 H76            3.2634     8.1045    -0.9068 H       
  77 H77           -2.6545     6.4682    -4.8965 H       
  78 H78           -0.4782     9.4605    -4.0920 H       
  79 H79           -0.5532     7.6435    -6.5435 H       
  80 H80           -0.0526     9.3516    -6.5325 H       
  81 H81            0.9120     8.1358    -5.6608 H       
  82 H82           -2.9474     9.2574    -4.1939 H       
  83 H83           -2.3063    10.0066    -5.6758 H       
  84 H84           -2.8070     8.2985    -5.6869 H       
  85 H85            1.7782    -0.0840    -0.1291 H       
  86 H86            1.9994     0.9021     1.3336 H       
  87 H87            1.0730    -2.0023     1.3190 H       
  88 H88            2.7390    -1.4710     1.6409 H       
  89 H89            2.0212    -0.2262     3.6074 H       
  90 H90            1.1631    -2.0896     4.9975 H       
  91 H91            0.6938    -3.4521     2.3067 H       
  92 H92            0.5045    -4.2153     3.9036 H       
  93 H93           -0.5754    -2.8859     3.4189 H       
  94 H94            2.8930    -3.7794     4.3618 H       
  95 H95            3.1165    -2.9354     2.8106 H       
  96 H96            3.5318    -2.1182     4.3364 H       
  97 H97            6.6258     7.4960     3.6546 H       
  98 H98            5.2180     6.5924     4.2627 H       
  99 H99            6.3484     5.8193     3.1257 H       
@<TRIPOS>BOND
   1    1    2 1
   2    1    6 1
   3    1    5 1
   4    1   53 1
   5    2    3 1
   6    2   43 1
   7    2   54 1
   8    3    4 1
   9    3   46 am
  10    4    5 1
  11    4    7 1
  12    4   55 1
  13    5   56 1
  14    5   57 1
  15    6   24 1
  16    7    8 2
  17    7    9 am
  18    9   10 1
  19    9   58 1
  20   10   11 1
  21   10   16 1
  22   10   17 1
  23   11   12 am
  24   11   13 2
  25   12   14 am
  26   12   59 1
  27   14   15 1
  28   14   20 2
  29   14   21 2
  30   15   18 1
  31   15   19 1
  32   15   60 1
  33   16   17 1
  34   16   22 1
  35   16   61 1
  36   17   62 1
  37   17   63 1
  38   18   19 1
  39   18   64 1
  40   18   65 1
  41   19   66 1
  42   19   67 1
  43   22   23 2
  44   22   68 1
  45   23   69 1
  46   23   70 1
  47   24   25 ar
  48   24   26 ar
  49   25   29 ar
  50   25   34 ar
  51   26   27 ar
  52   26   71 1
  53   27   28 ar
  54   27   30 1
  55   28   29 ar
  56   29   31 ar
  57   30   36 2
  58   30   39 1
  59   31   32 ar
  60   31   35 1
  61   32   33 ar
  62   32   51 1
  63   33   34 ar
  64   33   72 1
  65   34   73 1
  66   35   74 1
  67   35   75 1
  68   35   76 1
  69   36   37 1
  70   37   38 2
  71   37   40 1
  72   38   39 1
  73   38   77 1
  74   40   41 1
  75   40   42 1
  76   40   78 1
  77   41   79 1
  78   41   80 1
  79   41   81 1
  80   42   82 1
  81   42   83 1
  82   42   84 1
  83   43   44 1
  84   43   85 1
  85   43   86 1
  86   44   45 1
  87   44   87 1
  88   44   88 1
  89   45   46 1
  90   45   47 1
  91   45   89 1
  92   46   50 2
  93   47   48 1
  94   47   49 1
  95   47   90 1
  96   48   91 1
  97   48   92 1
  98   48   93 1
  99   49   94 1
 100   49   95 1
 101   49   96 1
 102   51   52 1
 103   52   97 1
 104   52   98 1
 105   52   99 1

#	End of record

