#	Name: ASD02670001
#	Creating user name:	WinNT
#	Creation time:	15. 06. 2019 20:26

#	Modifying user name:	WinNT
#	Modification time:	15. 06. 2019 20:26

#	Program:	/corina/corina34_cracker 3.40 0067  02.08.2006

@<TRIPOS>MOLECULE
ASD02670001
  43   42    0    0    0
SMALL
NO_CHARGES


@<TRIPOS>ATOM
   1 C1            -0.0184     1.5028     0.0103 C.2     
   2 C2             0.0021    -0.0041     0.0020 C.3     
   3 C3             1.4513    -0.4944    -0.0145 C.3     
   4 C4             1.4720    -2.0242    -0.0229 C.3     
   5 C5             2.9213    -2.5145    -0.0393 C.3     
   6 C6             2.9420    -4.0444    -0.0478 C.3     
   7 C7             4.3912    -4.5347    -0.0642 C.3     
   8 C8             4.4120    -6.0645    -0.0726 C.3     
   9 C9             5.8612    -6.5548    -0.0891 C.3     
  10 C10            5.8819    -8.0846    -0.0975 C.3     
  11 C11            7.3311    -8.5750    -0.1140 C.3     
  12 C12            7.3519   -10.1048    -0.1224 C.3     
  13 C13            8.8011   -10.5951    -0.1389 C.3     
  14 C14            8.8219   -12.1249    -0.1473 C.3     
  15 O15            1.0291     2.1267     0.0037 O.co2   
  16 O16           -1.0824     2.0980     0.0186 O.co2   
  17 H17           -0.4983    -0.3791     0.8948 H       
  18 H18           -0.5153    -0.3696    -0.8850 H       
  19 H19            1.9516    -0.1193    -0.9073 H       
  20 H20            1.9686    -0.1289     0.8726 H       
  21 H21            0.9717    -2.3993     0.8699 H       
  22 H22            0.9547    -2.3897    -0.9099 H       
  23 H23            3.4216    -2.1395    -0.9321 H       
  24 H24            3.4386    -2.1490     0.8477 H       
  25 H25            2.4417    -4.4194     0.8450 H       
  26 H26            2.4247    -4.4099    -0.9348 H       
  27 H27            4.8916    -4.1596    -0.9570 H       
  28 H28            4.9085    -4.1692     0.8228 H       
  29 H29            3.9116    -6.4396     0.8202 H       
  30 H30            3.8946    -6.4300    -0.9597 H       
  31 H31            6.3615    -6.1797    -0.9819 H       
  32 H32            6.3785    -6.1893     0.7980 H       
  33 H33            5.3816    -8.4597     0.7953 H       
  34 H34            5.3646    -8.4502    -0.9846 H       
  35 H35            7.8315    -8.1999    -1.0068 H       
  36 H36            7.8485    -8.2094     0.7731 H       
  37 H37            6.8516   -10.4799     0.7704 H       
  38 H38            6.8346   -10.4703    -1.0095 H       
  39 H39            9.3014   -10.2200    -1.0317 H       
  40 H40            9.3184   -10.2296     0.7482 H       
  41 H41            8.3215   -12.5000     0.7455 H       
  42 H42            8.3045   -12.4904    -1.0343 H       
  43 H43            9.8543   -12.4742    -0.1590 H       
@<TRIPOS>BOND
   1    1    2 1
   2    1   15 ar
   3    1   16 ar
   4    2    3 1
   5    2   17 1
   6    2   18 1
   7    3    4 1
   8    3   19 1
   9    3   20 1
  10    4    5 1
  11    4   21 1
  12    4   22 1
  13    5    6 1
  14    5   23 1
  15    5   24 1
  16    6    7 1
  17    6   25 1
  18    6   26 1
  19    7    8 1
  20    7   27 1
  21    7   28 1
  22    8    9 1
  23    8   29 1
  24    8   30 1
  25    9   10 1
  26    9   31 1
  27    9   32 1
  28   10   11 1
  29   10   33 1
  30   10   34 1
  31   11   12 1
  32   11   35 1
  33   11   36 1
  34   12   13 1
  35   12   37 1
  36   12   38 1
  37   13   14 1
  38   13   39 1
  39   13   40 1
  40   14   41 1
  41   14   42 1
  42   14   43 1

#	End of record

