#	Name: ASD01814818
#	Creating user name:	WinNT
#	Creation time:	15. 06. 2019 19:33

#	Modifying user name:	WinNT
#	Modification time:	15. 06. 2019 19:33

#	Program:	/corina/corina34_cracker 3.40 0067  02.08.2006

@<TRIPOS>MOLECULE
ASD01814818
  66   70    0    0    0
SMALL
NO_CHARGES


@<TRIPOS>ATOM
   1 O1            -0.0173     1.4248     0.0099 O.3     
   2 C2             0.0021    -0.0041     0.0020 C.3     
   3 H3             0.5121    -0.3565    -0.8945 H       
   4 C4             0.7396    -0.5125     1.2435 C.3     
   5 O5             0.7074    -1.9411     1.2633 O.3     
   6 C6            -0.6087    -2.4942     1.3259 C.3     
   7 C7            -1.4004    -2.0654     0.0877 C.3     
   8 C8            -1.4345    -0.5356     0.0160 C.3     
   9 H9            -1.9603    -0.1423     0.8861 H       
  10 N10           -2.1241    -0.1162    -1.2065 N.am    
  11 C11           -3.4675    -0.0083    -1.2192 C.2     
  12 O12           -4.1068    -0.2590    -0.2163 O.2     
  13 C13           -4.1639     0.4151    -2.4537 C.ar    
  14 C14           -5.5533     0.5307    -2.4601 C.ar    
  15 C15           -6.1946     0.9247    -3.6194 C.ar    
  16 C16           -7.6950     1.0596    -3.6597 C.3     
  17 C17           -8.2998    -0.2145    -4.1905 C.ar    
  18 C18           -8.5020    -0.3659    -5.5515 C.ar    
  19 C19           -9.0548    -1.5284    -6.0459 C.ar    
  20 C20           -9.4118    -2.5560    -5.1706 C.ar    
  21 C21          -10.0039    -3.8040    -5.6933 C.2     
  22 O22          -10.3136    -4.6967    -4.9284 O.2     
  23 N23          -10.2010    -3.9531    -7.0182 N.am    
  24 C24          -10.7884    -5.1910    -7.5367 C.3     
  25 C25          -10.9025    -5.1025    -9.0598 C.3     
  26 H26          -11.4524    -4.2033    -9.3377 H       
  27 C27          -11.6302    -6.3506    -9.6039 C.3     
  28 C28          -10.8385    -6.6524   -10.9055 C.3     
  29 C29           -9.4098    -6.2230   -10.4870 C.3     
  30 O30           -9.5950    -5.0724    -9.6441 O.3     
  31 C31           -9.2053    -2.3977    -3.7964 C.ar    
  32 F32           -9.5474    -3.3862    -2.9414 F       
  33 C33           -8.6447    -1.2284    -3.3163 C.ar    
  34 C34           -5.4250     1.1956    -4.7519 C.ar    
  35 O35           -5.8058     1.5771    -5.9985 O.3     
  36 C36           -4.6776     2.1447    -6.6855 C.3     
  37 C37           -3.4760     1.4303    -6.0233 C.3     
  38 C38           -4.0395     1.0619    -4.6627 C.ar    
  39 N39           -3.4607     0.6882    -3.5477 N.ar    
  40 H40            0.8606     1.8301     0.0037 H       
  41 H41            1.7748    -0.1726     1.2160 H       
  42 H42            0.2534    -0.1256     2.1390 H       
  43 H43           -0.5448    -3.5819     1.3577 H       
  44 H44           -1.1125    -2.1332     2.2225 H       
  45 H45           -0.9193    -2.4604    -0.8071 H       
  46 H46           -2.4182    -2.4497     0.1550 H       
  47 H47           -1.6139     0.0839    -2.0069 H       
  48 H48           -6.1228     0.3143    -1.5683 H       
  49 H49           -8.0700     1.2483    -2.6538 H       
  50 H50           -7.9677     1.8901    -4.3109 H       
  51 H51           -8.2261     0.4292    -6.2283 H       
  52 H52           -9.2118    -1.6437    -7.1082 H       
  53 H53           -9.9539    -3.2407    -7.6285 H       
  54 H54          -10.1528    -6.0349    -7.2683 H       
  55 H55          -11.7797    -5.3311    -7.1056 H       
  56 H56          -11.5537    -7.1810    -8.9020 H       
  57 H57          -12.6729    -6.1250    -9.8275 H       
  58 H58          -10.8740    -7.7142   -11.1496 H       
  59 H59          -11.2030    -6.0479   -11.7361 H       
  60 H60           -8.9210    -7.0242    -9.9327 H       
  61 H61           -8.8222    -5.9567   -11.3656 H       
  62 H62           -8.4801    -1.1051    -2.2561 H       
  63 H63           -4.7212     1.9191    -7.7510 H       
  64 H64           -4.6261     3.2207    -6.5196 H       
  65 H65           -3.1964     0.5381    -6.5835 H       
  66 H66           -2.6276     2.1072    -5.9230 H       
@<TRIPOS>BOND
   1    1    2 1
   2    1   40 1
   3    2    3 1
   4    2    8 1
   5    2    4 1
   6    4    5 1
   7    4   41 1
   8    4   42 1
   9    5    6 1
  10    6    7 1
  11    6   43 1
  12    6   44 1
  13    7    8 1
  14    7   45 1
  15    7   46 1
  16    8    9 1
  17    8   10 1
  18   10   11 am
  19   10   47 1
  20   11   12 2
  21   11   13 1
  22   13   39 ar
  23   13   14 ar
  24   14   15 ar
  25   14   48 1
  26   15   16 1
  27   15   34 ar
  28   16   17 1
  29   16   49 1
  30   16   50 1
  31   17   33 ar
  32   17   18 ar
  33   18   19 ar
  34   18   51 1
  35   19   20 ar
  36   19   52 1
  37   20   21 1
  38   20   31 ar
  39   21   22 2
  40   21   23 am
  41   23   24 1
  42   23   53 1
  43   24   25 1
  44   24   54 1
  45   24   55 1
  46   25   26 1
  47   25   30 1
  48   25   27 1
  49   27   28 1
  50   27   56 1
  51   27   57 1
  52   28   29 1
  53   28   58 1
  54   28   59 1
  55   29   30 1
  56   29   60 1
  57   29   61 1
  58   31   32 1
  59   31   33 ar
  60   33   62 1
  61   34   38 ar
  62   34   35 1
  63   35   36 1
  64   36   37 1
  65   36   63 1
  66   36   64 1
  67   37   38 1
  68   37   65 1
  69   37   66 1
  70   38   39 ar

#	End of record

