#	Name: ASD04550059
#	Creating user name:	WinNT
#	Creation time:	15. 06. 2019 20:49

#	Modifying user name:	WinNT
#	Modification time:	15. 06. 2019 20:49

#	Program:	/corina/corina34_cracker 3.40 0067  02.08.2006

@<TRIPOS>MOLECULE
ASD04550059
  41   41    0    0    0
SMALL
NO_CHARGES


@<TRIPOS>ATOM
   1 C1            -0.0881     1.8025    -0.3470 C.ar    
   2 C2            -0.1853     0.4186    -0.3611 C.ar    
   3 C3             0.9638    -0.3558    -0.2944 C.ar    
   4 C4             2.2016     0.2525    -0.2142 C.ar    
   5 C5             2.2957     1.6319    -0.1999 C.ar    
   6 C6             1.1520     2.4059    -0.2668 C.ar    
   7 C7             3.6472     2.2927    -0.1114 C.3     
   8 C8             3.8665     3.1721    -1.3441 C.3     
   9 O9            -1.4041    -0.1774    -0.4395 O.3     
  10 S10           -1.8739    -0.4408    -1.8630 S.o2    
  11 O11           -3.2389    -0.8084    -1.7192 O.2     
  12 O12           -1.5018     0.7300    -2.5772 O.2     
  13 C13            3.7097     3.1440     1.1305 C.2     
  14 O14            2.7512     3.2078     1.8709 O.2     
  15 N15            4.8307     3.8345     1.4185 N.am    
  16 S16            4.8578     4.8668     2.7131 S.o2    
  17 O17            6.1720     5.4073     2.7029 O.2     
  18 C18            3.6403     6.1457     2.2978 C.3     
  19 O19            4.3992     4.0763     3.8013 O.2     
  20 C20            3.5772     7.1758     3.4273 C.3     
  21 C21            4.0522     6.8390     0.9977 C.3     
  22 C22           -0.8865    -1.8608    -2.4101 C.3     
  23 F23           -1.1320    -2.9513    -1.5688 F       
  24 F24           -1.2380    -2.1955    -3.7222 F       
  25 F25            0.4721    -1.5306    -2.3611 F       
  26 H26           -0.9810     2.4075    -0.4033 H       
  27 H27            0.8908    -1.4333    -0.3047 H       
  28 H28            3.0965    -0.3499    -0.1623 H       
  29 H29            1.2281     3.4831    -0.2555 H       
  30 H30            4.4231     1.5285    -0.0675 H       
  31 H31            3.8213     2.5564    -2.2424 H       
  32 H32            3.0906     3.9364    -1.3880 H       
  33 H33            4.8440     3.6502    -1.2800 H       
  34 H34            5.6217     3.7268     0.8675 H       
  35 H35            2.6601     5.6864     2.1699 H       
  36 H36            4.5574     7.6352     3.5553 H       
  37 H37            2.8456     7.9443     3.1778 H       
  38 H38            3.2837     6.6819     4.3536 H       
  39 H39            5.0678     7.2222     1.0962 H       
  40 H40            4.0118     6.1240     0.1760 H       
  41 H41            3.3704     7.6649     0.7945 H       
@<TRIPOS>BOND
   1    1    2 ar
   2    1    6 ar
   3    1   26 1
   4    2    3 ar
   5    2    9 1
   6    3    4 ar
   7    3   27 1
   8    4    5 ar
   9    4   28 1
  10    5    6 ar
  11    5    7 1
  12    6   29 1
  13    7    8 1
  14    7   13 1
  15    7   30 1
  16    8   31 1
  17    8   32 1
  18    8   33 1
  19    9   10 1
  20   10   11 2
  21   10   12 2
  22   10   22 1
  23   13   14 2
  24   13   15 am
  25   15   16 am
  26   15   34 1
  27   16   17 2
  28   16   18 1
  29   16   19 2
  30   18   20 1
  31   18   21 1
  32   18   35 1
  33   20   36 1
  34   20   37 1
  35   20   38 1
  36   21   39 1
  37   21   40 1
  38   21   41 1
  39   22   23 1
  40   22   24 1
  41   22   25 1

#	End of record

