#	Name: ASD01916578
#	Creating user name:	WinNT
#	Creation time:	15. 06. 2019 20:07

#	Modifying user name:	WinNT
#	Modification time:	15. 06. 2019 20:07

#	Program:	/corina/corina34_cracker 3.40 0067  02.08.2006

@<TRIPOS>MOLECULE
ASD01916578
  25   25    0    0    0
SMALL
NO_CHARGES


@<TRIPOS>ATOM
   1 C1            -0.0184     1.5028     0.0103 C.2     
   2 C2             0.0021    -0.0041     0.0020 C.3     
   3 N3             1.0915     2.1639     0.0033 N.2     
   4 N4            -1.2203     2.1751     0.0197 N.pl3   
   5 C5             1.4295    -0.4870    -0.0142 C.ar    
   6 C6             2.0947    -0.7146     1.1752 C.ar    
   7 C7             3.4086    -1.1591     1.1596 C.ar    
   8 C8             4.0515    -1.3741    -0.0511 C.ar    
   9 C9             3.3821    -1.1450    -1.2374 C.ar    
  10 C10            2.0704    -0.7073    -1.2191 C.ar    
  11 O11            4.0652    -1.3833     2.3281 O.3     
  12 C12            5.4161    -1.8402     2.2359 C.3     
  13 O13            1.0723     3.5797     0.0110 O.3     
  14 H14           -0.4983    -0.3791     0.8948 H       
  15 H15           -0.5153    -0.3696    -0.8850 H       
  16 H16           -2.0537     1.6787     0.0209 H       
  17 H17           -1.2334     3.1450     0.0250 H       
  18 H18            1.5923    -0.5463     2.1162 H       
  19 H19            5.0745    -1.7198    -0.0659 H       
  20 H20            3.8821    -1.3118    -2.1800 H       
  21 H21            1.5472    -0.5334    -2.1478 H       
  22 H22            5.4431    -2.7880     1.6982 H       
  23 H23            6.0136    -1.1019     1.7011 H       
  24 H24            5.8218    -1.9793     3.2379 H       
  25 H25            1.9502     3.9850     0.0048 H       
@<TRIPOS>BOND
   1    1    2 1
   2    1    3 2
   3    1    4 1
   4    2    5 1
   5    2   14 1
   6    2   15 1
   7    3   13 1
   8    4   16 1
   9    4   17 1
  10    5    6 ar
  11    5   10 ar
  12    6    7 ar
  13    6   18 1
  14    7    8 ar
  15    7   11 1
  16    8    9 ar
  17    8   19 1
  18    9   10 ar
  19    9   20 1
  20   10   21 1
  21   11   12 1
  22   12   22 1
  23   12   23 1
  24   12   24 1
  25   13   25 1

#	End of record

