#	Name: ASD03091584
#	Creating user name:	WinNT
#	Creation time:	15. 06. 2019 20:31

#	Modifying user name:	WinNT
#	Modification time:	15. 06. 2019 20:31

#	Program:	/corina/corina34_cracker 3.40 0067  02.08.2006

@<TRIPOS>MOLECULE
ASD03091584
  35   36    0    0    0
SMALL
NO_CHARGES


@<TRIPOS>ATOM
   1 C1            -0.0167     1.3801     0.0096 C.ar    
   2 C2             0.0021    -0.0041     0.0020 C.ar    
   3 C3             1.2102    -0.6832    -0.0127 C.ar    
   4 C4             2.4156     0.0227    -0.0204 C.ar    
   5 C5             2.4115     1.4002    -0.0130 C.ar    
   6 C6             1.1931     2.0954     0.0019 C.ar    
   7 C7             1.1818     3.5600     0.0094 C.2     
   8 O8             0.1263     4.1585     0.0223 O.2     
   9 C9             2.4810     4.3236     0.0011 C.3     
  10 C10            2.1898     5.8256     0.0114 C.3     
  11 C11            3.4890     6.5892     0.0031 C.ar    
  12 C12            4.1257     6.8612    -1.1998 C.ar    
  13 C13            4.0423     7.0229     1.1924 C.ar    
  14 C14            5.2331     7.7241     1.1880 C.ar    
  15 C15            5.8760     7.9944    -0.0115 C.ar    
  16 C16            5.3204     7.5640    -1.2068 C.ar    
  17 O17            3.5785     6.4385    -2.3697 O.3     
  18 O18           -1.1996     2.0443     0.0189 O.3     
  19 O19            3.5970    -0.6521    -0.0349 O.3     
  20 O20            1.2222    -2.0406    -0.0192 O.3     
  21 O21            7.0467     8.6845    -0.0152 O.3     
  22 H22           -0.9264    -0.5558     0.0079 H       
  23 H23            3.3446     1.9441    -0.0183 H       
  24 H24            3.0628     4.0603     0.8844 H       
  25 H25            3.0462     4.0692    -0.8955 H       
  26 H26            1.6079     6.0890    -0.8719 H       
  27 H27            1.6246     6.0800     0.9080 H       
  28 H28            3.5432     6.8138     2.1271 H       
  29 H29            5.6635     8.0624     2.1190 H       
  30 H30            5.8176     7.7764    -2.1418 H       
  31 H31            2.9729     7.0752    -2.7734 H       
  32 H32           -1.5384     2.2321     0.9049 H       
  33 H33            3.9302    -0.8428    -0.9224 H       
  34 H34            1.2173    -2.4297    -0.9044 H       
  35 H35            7.8329     8.1256     0.0525 H       
@<TRIPOS>BOND
   1    1    2 ar
   2    1    6 ar
   3    1   18 1
   4    2    3 ar
   5    2   22 1
   6    3    4 ar
   7    3   20 1
   8    4    5 ar
   9    4   19 1
  10    5    6 ar
  11    5   23 1
  12    6    7 1
  13    7    8 2
  14    7    9 1
  15    9   10 1
  16    9   24 1
  17    9   25 1
  18   10   11 1
  19   10   26 1
  20   10   27 1
  21   11   13 ar
  22   11   12 ar
  23   12   16 ar
  24   12   17 1
  25   13   14 ar
  26   13   28 1
  27   14   15 ar
  28   14   29 1
  29   15   16 ar
  30   15   21 1
  31   16   30 1
  32   17   31 1
  33   18   32 1
  34   19   33 1
  35   20   34 1
  36   21   35 1

#	End of record

