#	Name: ASD09200042
#	Creating user name:	WinNT
#	Creation time:	15. 06. 2019 21:21

#	Modifying user name:	WinNT
#	Modification time:	15. 06. 2019 21:21

#	Program:	/corina/corina34_cracker 3.40 0067  02.08.2006

@<TRIPOS>MOLECULE
ASD09200042
  42   44    0    0    0
SMALL
NO_CHARGES


@<TRIPOS>ATOM
   1 C1            -0.0179     1.4653     0.0101 C.3     
   2 C2            -0.7578     1.9697    -1.2311 C.3     
   3 C3             2.4454    -1.7523     5.6177 C.ar    
   4 C4             2.9001    -1.9589     4.3162 C.ar    
   5 C5             2.1234    -1.4386     3.1652 C.ar    
   6 C6             1.9643    -0.0686     2.9711 C.ar    
   7 C7             0.7254    -0.4960     1.0738 C.ar    
   8 C8             1.5324    -2.3161     2.2368 C.ar    
   9 C9            -0.8157     3.4983    -1.2049 C.3     
  10 C10           -3.5389    -0.5721    -1.2352 C.3     
  11 N11            0.0021    -0.0041     0.0020 N.3     
  12 N12           -2.1236     1.4273    -1.2380 N.3     
  13 C13           -2.1037    -0.0421    -1.2461 C.3     
  14 C14           -1.3637    -0.5464    -0.0049 C.3     
  15 C15            4.0883    -2.6563     4.1008 C.ar    
  16 C16            4.8079    -3.1384     5.1784 C.ar    
  17 C17            4.3503    -2.9294     6.4677 C.ar    
  18 C18            3.1720    -2.2380     6.6856 C.ar    
  19 N19            1.2687     0.3580     1.9291 N.ar    
  20 N20            0.8459    -1.8072     1.2206 N.ar    
  21 N21            1.6651    -3.6857     2.3804 N.pl3   
  22 Cl22           6.2873    -4.0074     4.9138 Cl      
  23 Cl23           4.6622    -2.9190     2.4836 Cl      
  24 H24            1.0046     1.8429     0.0024 H       
  25 H25           -0.5287     1.8172     0.9064 H       
  26 H26           -0.2314     1.6407    -2.1270 H       
  27 H27            1.5280    -1.2093     5.7902 H       
  28 H28            2.4025     0.6364     3.6620 H       
  29 H29            0.1974     3.9002    -1.1978 H       
  30 H30           -1.3428     3.8572    -2.0889 H       
  31 H31           -1.3431     3.8267    -0.3092 H       
  32 H32           -4.0662    -0.2112    -2.1183 H       
  33 H33           -3.5238    -1.6620    -1.2412 H       
  34 H34           -4.0492    -0.2207    -0.3385 H       
  35 H35           -2.6557     1.7775    -0.4555 H       
  36 H36           -1.5929    -0.3939    -2.1424 H       
  37 H37           -1.3225    -1.6354    -0.0236 H       
  38 H38           -1.8902    -0.2174     0.8910 H       
  39 H39            4.9150    -3.3078     7.3069 H       
  40 H40            2.8199    -2.0781     7.6940 H       
  41 H41            2.1687    -4.0487     3.1257 H       
  42 H42            1.2544    -4.2830     1.7357 H       
@<TRIPOS>BOND
   1    1   11 1
   2    1   24 1
   3    1   25 1
   4    1    2 1
   5    2   12 1
   6    2   26 1
   7    2    9 1
   8    3   18 ar
   9    3    4 ar
  10    3   27 1
  11    4   15 ar
  12    4    5 1
  13    5    8 ar
  14    5    6 ar
  15    6   28 1
  16    6   19 ar
  17    7   20 ar
  18    7   11 1
  19    7   19 ar
  20    8   21 1
  21    8   20 ar
  22    9   29 1
  23    9   30 1
  24    9   31 1
  25   10   32 1
  26   10   33 1
  27   10   34 1
  28   10   13 1
  29   11   14 1
  30   12   13 1
  31   12   35 1
  32   13   36 1
  33   13   14 1
  34   14   37 1
  35   14   38 1
  36   15   16 ar
  37   15   23 1
  38   16   22 1
  39   16   17 ar
  40   17   39 1
  41   17   18 ar
  42   18   40 1
  43   21   41 1
  44   21   42 1

#	End of record

