#	Name: ASD01180244
#	Creating user name:	WinNT
#	Creation time:	15. 06. 2019 19:07

#	Modifying user name:	WinNT
#	Modification time:	15. 06. 2019 19:07

#	Program:	/corina/corina34_cracker 3.40 0067  02.08.2006

@<TRIPOS>MOLECULE
ASD01180244
  60   62    0    0    0
SMALL
NO_CHARGES


@<TRIPOS>ATOM
   1 C1             0.6277     1.6320     0.6393 C.2     
   2 C2             0.5508     0.1297     0.5479 C.3     
   3 C3             1.9644    -0.4488     0.4584 C.3     
   4 O4             1.7028     2.1834     0.6334 O.2     
   5 O5            -0.4984     2.3579     0.7216 O.3     
   6 C6             3.0201    -2.6377     0.2814 C.2     
   7 C7             2.9447    -4.1115     0.1918 C.ar    
   8 C8             4.1135    -4.8689     0.1002 C.ar    
   9 C9             4.0362    -6.2438     0.0174 C.ar    
  10 C10            2.8034    -6.8720     0.0244 C.ar    
  11 C11            1.6410    -6.1271     0.1149 C.ar    
  12 C12            1.7046    -4.7519     0.2041 C.ar    
  13 O13            4.1017    -2.0830     0.2755 O.2     
  14 N14            1.8897    -1.9092     0.3696 N.am    
  15 C15            2.7266    -8.3743    -0.0674 C.3     
  16 C16            2.5041    -8.9598     1.3285 C.3     
  17 C17            2.5582   -10.4871     1.2554 C.3     
  18 C18            2.4602   -11.0690     2.6670 C.3     
  19 N19            1.6122    -8.7538    -0.9394 N.pl3   
  20 C20            1.7795    -8.7577    -2.3187 C.ar    
  21 C21            3.0344    -8.5008    -2.8691 C.ar    
  22 N22            0.7459    -9.0114    -3.1115 N.ar    
  23 N23            3.1940    -8.5047    -4.1773 N.ar    
  24 C24            2.1571    -8.7540    -4.9731 C.ar    
  25 C25            0.9045    -9.0156    -4.4227 C.ar    
  26 C26            2.3361    -8.7586    -6.4454 C.ar    
  27 C27            3.5895    -8.5021    -6.9985 C.ar    
  28 C28            3.7503    -8.5081    -8.3691 C.ar    
  29 C29            2.6704    -8.7676    -9.1937 C.ar    
  30 C30            1.4241    -9.0224    -8.6504 C.ar    
  31 C31            1.2529    -9.0251    -7.2810 C.ar    
  32 C32            2.8523    -8.7723   -10.6897 C.3     
  33 F33            3.1891   -10.0620   -11.1145 F       
  34 F34            1.6608    -8.3747   -11.3056 F       
  35 F35            3.8760    -7.8845   -11.0378 F       
  36 H36            0.0529    -0.2632     1.4344 H       
  37 H37           -0.0139    -0.1518    -0.3408 H       
  38 H38            2.4623    -0.0559    -0.4280 H       
  39 H39            2.5291    -0.1673     1.3472 H       
  40 H40           -0.3986     3.3180     0.7783 H       
  41 H41            5.0763    -4.3796     0.0940 H       
  42 H42            4.9398    -6.8310    -0.0535 H       
  43 H43            0.6819    -6.6236     0.1199 H       
  44 H44            0.7967    -4.1719     0.2792 H       
  45 H45            1.0266    -2.3518     0.3744 H       
  46 H46            3.6585    -8.7613    -0.4795 H       
  47 H47            3.2826    -8.6005     2.0015 H       
  48 H48            1.5287    -8.6482     1.7020 H       
  49 H49            1.7258   -10.8517     0.6535 H       
  50 H50            3.4989   -10.7960     0.7996 H       
  51 H51            2.4987   -12.1571     2.6150 H       
  52 H52            3.2926   -10.7044     3.2689 H       
  53 H53            1.5195   -10.7601     3.1229 H       
  54 H54            0.7575    -9.0024    -0.5538 H       
  55 H55            3.8760    -8.2981    -2.2232 H       
  56 H56            0.0635    -9.2222    -5.0680 H       
  57 H57            4.4332    -8.2987    -6.3556 H       
  58 H58            4.7211    -8.3095    -8.7988 H       
  59 H59            0.5844    -9.2240    -9.2989 H       
  60 H60            0.2804    -9.2289    -6.8577 H       
@<TRIPOS>BOND
   1    1    2 1
   2    1    4 2
   3    1    5 1
   4    2    3 1
   5    2   36 1
   6    2   37 1
   7    3   14 1
   8    3   38 1
   9    3   39 1
  10    5   40 1
  11    6    7 1
  12    6   13 2
  13    6   14 am
  14    7    8 ar
  15    7   12 ar
  16    8    9 ar
  17    8   41 1
  18    9   10 ar
  19    9   42 1
  20   10   11 ar
  21   10   15 1
  22   11   12 ar
  23   11   43 1
  24   12   44 1
  25   14   45 1
  26   15   16 1
  27   15   19 1
  28   15   46 1
  29   16   17 1
  30   16   47 1
  31   16   48 1
  32   17   18 1
  33   17   49 1
  34   17   50 1
  35   18   51 1
  36   18   52 1
  37   18   53 1
  38   19   20 1
  39   19   54 1
  40   20   21 ar
  41   20   22 ar
  42   21   23 ar
  43   21   55 1
  44   22   25 ar
  45   23   24 ar
  46   24   25 ar
  47   24   26 1
  48   25   56 1
  49   26   27 ar
  50   26   31 ar
  51   27   28 ar
  52   27   57 1
  53   28   29 ar
  54   28   58 1
  55   29   30 ar
  56   29   32 1
  57   30   31 ar
  58   30   59 1
  59   31   60 1
  60   32   33 1
  61   32   34 1
  62   32   35 1

#	End of record

