#	Name: ASD03130022
#	Creating user name:	WinNT
#	Creation time:	15. 06. 2019 20:33

#	Modifying user name:	WinNT
#	Modification time:	15. 06. 2019 20:33

#	Program:	/corina/corina34_cracker 3.40 0067  02.08.2006

@<TRIPOS>MOLECULE
ASD03130022
  82   85    0    0    0
SMALL
NO_CHARGES


@<TRIPOS>ATOM
   1 C1            -0.0178     1.4608     0.0101 C.3     
   2 N2             0.0021    -0.0041     0.0020 N.am    
   3 C3            -1.1558    -0.6938     0.0094 C.2     
   4 O4            -2.2142    -0.1017     0.0227 O.2     
   5 C5            -1.1354    -2.2006     0.0011 C.3     
   6 H6            -0.6082    -2.5617     0.8841 H       
   7 C7            -0.4192    -2.6940    -1.2577 C.3     
   8 C8            -0.2902    -4.1946    -1.2067 C.ar    
   9 C9             0.8205    -4.7730    -0.6215 C.ar    
  10 C10            0.9394    -6.1504    -0.5743 C.ar    
  11 Br11           2.4586    -6.9416     0.2268 Br      
  12 C12           -0.0533    -6.9488    -1.1129 C.ar    
  13 C13           -1.1644    -6.3696    -1.6984 C.ar    
  14 Br14          -2.5223    -7.4606    -2.4344 Br      
  15 C15           -1.2852    -4.9922    -1.7400 C.ar    
  16 N16           -2.5098    -2.7077     0.0115 N.am    
  17 C17           -3.1661    -2.8517     1.1798 C.2     
  18 O18           -2.6189    -2.5616     2.2225 O.2     
  19 C19           -4.5799    -3.3734     1.1905 C.3     
  20 H20           -4.6026    -4.3706     0.7510 H       
  21 C21           -5.4752    -2.4369     0.3766 C.3     
  22 C22           -6.8611    -3.0214     0.2843 C.ar    
  23 C23           -7.1825    -3.8701    -0.7602 C.ar    
  24 C24           -8.4494    -4.4086    -0.8506 C.ar    
  25 C25           -9.4079    -4.0956     0.1145 C.ar    
  26 C26           -9.0771    -3.2389     1.1656 C.ar    
  27 C27           -7.8049    -2.7116     1.2474 C.ar    
  28 C28          -10.7677    -4.6687     0.0236 C.2     
  29 N29          -11.6910    -4.3645     0.9571 N.am    
  30 O30          -11.0530    -5.4142    -0.8931 O.2     
  31 N31           -5.0666    -3.4368     2.5708 N.am    
  32 C32           -6.0483    -4.2995     2.9003 C.2     
  33 O33           -6.5289    -5.0231     2.0539 O.2     
  34 C34           -6.5489    -4.3647     4.3202 C.3     
  35 C35           -7.6550    -5.4168     4.4231 C.3     
  36 C36           -8.1633    -5.4831     5.8647 C.3     
  37 C37           -9.2694    -6.5352     5.9676 C.3     
  38 C38          -10.4229    -6.1551     5.0371 C.3     
  39 C39           -9.9147    -6.0888     3.5955 C.3     
  40 C40           -8.8086    -5.0368     3.4926 C.3     
  41 C41           -5.4127    -4.7391     5.2367 C.ar    
  42 C42           -4.7459    -5.9366     5.0573 C.ar    
  43 C43           -3.7037    -6.2800     5.8980 C.ar    
  44 C44           -3.3280    -5.4256     6.9178 C.ar    
  45 C45           -3.9943    -4.2277     7.0965 C.ar    
  46 C46           -5.0337    -3.8824     6.2532 C.ar    
  47 H47            1.0048     1.8381     0.0023 H       
  48 H48           -0.5450     1.8219    -0.8730 H       
  49 H49           -0.5280     1.8123     0.9069 H       
  50 H50            0.8486    -0.4776    -0.0086 H       
  51 H51           -0.9945    -2.4086    -2.1385 H       
  52 H52            0.5728    -2.2456    -1.3107 H       
  53 H53            1.5957    -4.1495    -0.2012 H       
  54 H54            0.0394    -8.0242    -1.0766 H       
  55 H55           -2.1549    -4.5399    -2.1932 H       
  56 H56           -2.9474    -2.9398    -0.8225 H       
  57 H57           -5.5231    -1.4640     0.8658 H       
  58 H58           -5.0627    -2.3198    -0.6255 H       
  59 H59           -6.4400    -4.1111    -1.5065 H       
  60 H60           -8.6991    -5.0706    -1.6666 H       
  61 H61           -9.8142    -2.9928     1.9156 H       
  62 H62           -7.5464    -2.0520     2.0626 H       
  63 H63          -11.4633    -3.7696     1.6886 H       
  64 H64          -12.5831    -4.7405     0.8975 H       
  65 H65           -4.6822    -2.8580     3.2477 H       
  66 H66           -6.9448    -3.3917     4.6110 H       
  67 H67           -7.2591    -6.3899     4.1323 H       
  68 H68           -7.3415    -5.7539     6.5276 H       
  69 H69           -8.5592    -4.5101     6.1555 H       
  70 H70           -8.8735    -7.5082     5.6768 H       
  71 H71           -9.6315    -6.5824     6.9946 H       
  72 H72          -11.2109    -6.9047     5.1105 H       
  73 H73          -10.8188    -5.1821     5.3279 H       
  74 H74           -9.5188    -7.0619     3.3047 H       
  75 H75          -10.7365    -5.8181     2.9326 H       
  76 H76           -9.2045    -4.0637     3.7834 H       
  77 H77           -8.4465    -4.9895     2.4656 H       
  78 H78           -5.0394    -6.6041     4.2606 H       
  79 H79           -3.1831    -7.2159     5.7584 H       
  80 H80           -2.5142    -5.6942     7.5750 H       
  81 H81           -3.7010    -3.5604     7.8935 H       
  82 H82           -5.5518    -2.9448     6.3905 H       
@<TRIPOS>BOND
   1    1    2 1
   2    1   47 1
   3    1   48 1
   4    1   49 1
   5    2    3 am
   6    2   50 1
   7    3    4 2
   8    3    5 1
   9    5    6 1
  10    5    7 1
  11    5   16 1
  12    7    8 1
  13    7   51 1
  14    7   52 1
  15    8   15 ar
  16    8    9 ar
  17    9   10 ar
  18    9   53 1
  19   10   11 1
  20   10   12 ar
  21   12   13 ar
  22   12   54 1
  23   13   14 1
  24   13   15 ar
  25   15   55 1
  26   16   17 am
  27   16   56 1
  28   17   18 2
  29   17   19 1
  30   19   20 1
  31   19   21 1
  32   19   31 1
  33   21   22 1
  34   21   57 1
  35   21   58 1
  36   22   27 ar
  37   22   23 ar
  38   23   24 ar
  39   23   59 1
  40   24   25 ar
  41   24   60 1
  42   25   26 ar
  43   25   28 1
  44   26   27 ar
  45   26   61 1
  46   27   62 1
  47   28   29 am
  48   28   30 2
  49   29   63 1
  50   29   64 1
  51   31   32 am
  52   31   65 1
  53   32   33 2
  54   32   34 1
  55   34   35 1
  56   34   41 1
  57   34   66 1
  58   35   40 1
  59   35   36 1
  60   35   67 1
  61   36   37 1
  62   36   68 1
  63   36   69 1
  64   37   38 1
  65   37   70 1
  66   37   71 1
  67   38   39 1
  68   38   72 1
  69   38   73 1
  70   39   40 1
  71   39   74 1
  72   39   75 1
  73   40   76 1
  74   40   77 1
  75   41   46 ar
  76   41   42 ar
  77   42   43 ar
  78   42   78 1
  79   43   44 ar
  80   43   79 1
  81   44   45 ar
  82   44   80 1
  83   45   46 ar
  84   45   81 1
  85   46   82 1

#	End of record

