#	Name: ASD01880097
#	Creating user name:	WinNT
#	Creation time:	15. 06. 2019 19:40

#	Modifying user name:	WinNT
#	Modification time:	15. 06. 2019 19:40

#	Program:	/corina/corina34_cracker 3.40 0067  02.08.2006

@<TRIPOS>MOLECULE
ASD01880097
  64   68    0    0    0
SMALL
NO_CHARGES


@<TRIPOS>ATOM
   1 C1            -0.0167     1.3781     0.0096 C.ar    
   2 C2             0.0021    -0.0041     0.0020 C.ar    
   3 C3             1.2070    -0.6844    -0.0127 C.ar    
   4 C4             2.4093     0.0209    -0.0205 C.ar    
   5 C5             2.3981     1.4118    -0.0133 C.ar    
   6 C6             1.1826     2.0943     0.0020 C.ar    
   7 C7             3.7000    -0.7115    -0.0358 C.ar    
   8 C8             4.9027    -0.0084    -0.0435 C.ar    
   9 C9             6.1003    -0.6947    -0.0573 C.ar    
  10 C10            6.1077    -2.0776    -0.0639 C.ar    
  11 C11            4.9164    -2.7808    -0.0567 C.ar    
  12 C12            3.7134    -2.1049    -0.0366 C.ar    
  13 C13            4.9324    -4.2877    -0.0644 C.3     
  14 O14            4.9496    -4.7708     1.2804 O.3     
  15 C15            4.9655    -6.1165     1.4512 C.ar    
  16 C16            4.9645    -6.9569     0.3443 C.ar    
  17 C17            4.9807    -8.3257     0.5140 C.ar    
  18 C18            4.9984    -8.8673     1.8013 C.ar    
  19 C19            4.9996    -8.0060     2.9123 C.ar    
  20 C20            4.9885    -6.6538     2.7338 C.ar    
  21 C21            4.9830    -9.4407    -0.5039 C.3     
  22 C22            5.0044   -10.7514     0.2945 C.3     
  23 C23            5.0135   -10.3354     1.7454 C.2     
  24 C24            3.7545   -11.5790    -0.0118 C.3     
  25 C25            3.6988   -11.9139    -1.5126 C.3     
  26 C26            3.7279   -13.4524    -1.6222 C.3     
  27 C27            3.1941   -13.9410    -0.2527 C.3     
  28 C28            3.8156   -12.9257     0.7383 C.3     
  29 O29            5.0300   -11.0837     2.6999 O.2     
  30 C30            4.9904    -5.7385     3.9311 C.3     
  31 C31            5.0182    -8.5789     4.3060 C.3     
  32 F32           -1.1600    -0.6931     0.0095 F       
  33 C33            1.1629     3.5716     0.0092 C.2     
  34 O34            2.2066     4.1930     0.0016 O.2     
  35 O35           -0.0126     4.2295     0.0240 O.3     
  36 H36           -0.9595     1.9048     0.0170 H       
  37 H37            1.2159    -1.7643    -0.0179 H       
  38 H38            3.3279     1.9612    -0.0193 H       
  39 H39            4.8980     1.0716    -0.0391 H       
  40 H40            7.0333    -0.1506    -0.0633 H       
  41 H41            7.0470    -2.6106    -0.0750 H       
  42 H42            2.7839    -2.6548    -0.0307 H       
  43 H43            4.0417    -4.6579    -0.5721 H       
  44 H44            5.8215    -4.6389    -0.5880 H       
  45 H45            4.9508    -6.5374    -0.6508 H       
  46 H46            4.0831    -9.3901    -1.1169 H       
  47 H47            5.8701    -9.3711    -1.1335 H       
  48 H48            5.9029   -11.3220     0.0596 H       
  49 H49            2.8610   -11.0278     0.2812 H       
  50 H50            2.7779   -11.5260    -1.9478 H       
  51 H51            4.5622   -11.4869    -2.0227 H       
  52 H52            3.0762   -13.7899    -2.4281 H       
  53 H53            4.7472   -13.8043    -1.7818 H       
  54 H54            2.1056   -13.8930    -0.2230 H       
  55 H55            3.5432   -14.9514    -0.0402 H       
  56 H56            4.8489   -13.1925     0.9599 H       
  57 H57            3.2278   -12.8787     1.6550 H       
  58 H58            6.0185    -5.5104     4.2123 H       
  59 H59            4.4680    -4.8146     3.6829 H       
  60 H60            4.4861    -6.2286     4.7639 H       
  61 H61            6.0503    -8.7064     4.6327 H       
  62 H62            4.5035    -7.8992     4.9852 H       
  63 H63            4.5143    -9.5454     4.3083 H       
  64 H64            0.0252     5.1958     0.0282 H       
@<TRIPOS>BOND
   1    1    2 ar
   2    1    6 ar
   3    1   36 1
   4    2    3 ar
   5    2   32 1
   6    3    4 ar
   7    3   37 1
   8    4    5 ar
   9    4    7 1
  10    5    6 ar
  11    5   38 1
  12    6   33 1
  13    7    8 ar
  14    7   12 ar
  15    8    9 ar
  16    8   39 1
  17    9   10 ar
  18    9   40 1
  19   10   11 ar
  20   10   41 1
  21   11   12 ar
  22   11   13 1
  23   12   42 1
  24   13   14 1
  25   13   43 1
  26   13   44 1
  27   14   15 1
  28   15   16 ar
  29   15   20 ar
  30   16   17 ar
  31   16   45 1
  32   17   18 ar
  33   17   21 1
  34   18   19 ar
  35   18   23 1
  36   19   20 ar
  37   19   31 1
  38   20   30 1
  39   21   22 1
  40   21   46 1
  41   21   47 1
  42   22   23 1
  43   22   24 1
  44   22   48 1
  45   23   29 2
  46   24   25 1
  47   24   28 1
  48   24   49 1
  49   25   26 1
  50   25   50 1
  51   25   51 1
  52   26   27 1
  53   26   52 1
  54   26   53 1
  55   27   28 1
  56   27   54 1
  57   27   55 1
  58   28   56 1
  59   28   57 1
  60   30   58 1
  61   30   59 1
  62   30   60 1
  63   31   61 1
  64   31   62 1
  65   31   63 1
  66   33   34 2
  67   33   35 1
  68   35   64 1

#	End of record

