#	Name: ASD01918179
#	Creating user name:	WinNT
#	Creation time:	15. 06. 2019 20:10

#	Modifying user name:	WinNT
#	Modification time:	15. 06. 2019 20:10

#	Program:	/corina/corina34_cracker 3.40 0067  02.08.2006

@<TRIPOS>MOLECULE
ASD01918179
  34   36    0    0    0
SMALL
NO_CHARGES


@<TRIPOS>ATOM
   1 C1            -0.0166     1.3764     0.0096 C.ar    
   2 C2             0.0021    -0.0041     0.0020 C.ar    
   3 C3             1.2206    -0.6903    -0.0129 C.ar    
   4 C4             2.4187     0.0235    -0.0205 C.ar    
   5 C5             2.3916     1.4179    -0.0133 C.ar    
   6 C6             1.1652     2.0898     0.0022 C.ar    
   7 C7             1.2380    -2.1221    -0.0198 C.1     
   8 C8             1.2522    -3.2960    -0.0255 C.1     
   9 C9             1.2697    -4.7279    -0.0324 C.ar    
  10 C10            3.6165     2.1597    -0.0205 C.1     
  11 C11            4.6207     2.7678    -0.0265 C.1     
  12 C12            5.8456     3.5096    -0.0338 C.ar    
  13 N13            2.4318    -5.3739    -0.0465 N.ar    
  14 C14            2.4894    -6.6896    -0.0533 C.ar    
  15 C15            1.3353    -7.4518    -0.0463 C.ar    
  16 C16            0.0997    -6.8189    -0.0315 C.ar    
  17 C17            0.0654    -5.4363    -0.0184 C.ar    
  18 N18            7.0080     2.8642    -0.0530 N.ar    
  19 C19            5.8107     4.9063    -0.0264 C.ar    
  20 C20            7.0027     5.6077    -0.0336 C.ar    
  21 C21            8.1929     4.8931    -0.0480 C.ar    
  22 C22            8.1555     3.5105    -0.0603 C.ar    
  23 H23           -0.9607     1.9008     0.0169 H       
  24 H24           -0.9266    -0.5554     0.0080 H       
  25 H25            3.3628    -0.5009    -0.0317 H       
  26 H26            1.1427     3.1696     0.0082 H       
  27 H27            3.4514    -7.1803    -0.0648 H       
  28 H28            1.3948    -8.5302    -0.0526 H       
  29 H29           -0.8147    -7.3937    -0.0261 H       
  30 H30           -0.8786    -4.9118    -0.0063 H       
  31 H31            4.8666     5.4307    -0.0157 H       
  32 H32            7.0076     6.6877    -0.0286 H       
  33 H33            9.1399     5.4123    -0.0539 H       
  34 H34            9.0804     2.9530    -0.0760 H       
@<TRIPOS>BOND
   1    1    2 ar
   2    1    6 ar
   3    1   23 1
   4    2    3 ar
   5    2   24 1
   6    3    4 ar
   7    3    7 1
   8    4    5 ar
   9    4   25 1
  10    5    6 ar
  11    5   10 1
  12    6   26 1
  13    7    8 3
  14    8    9 1
  15    9   13 ar
  16    9   17 ar
  17   10   11 3
  18   11   12 1
  19   12   19 ar
  20   12   18 ar
  21   13   14 ar
  22   14   15 ar
  23   14   27 1
  24   15   16 ar
  25   15   28 1
  26   16   17 ar
  27   16   29 1
  28   17   30 1
  29   18   22 ar
  30   19   20 ar
  31   19   31 1
  32   20   21 ar
  33   20   32 1
  34   21   22 ar
  35   21   33 1
  36   22   34 1

#	End of record

