#	Name: ASD01913258
#	Creating user name:	WinNT
#	Creation time:	15. 06. 2019 20:01

#	Modifying user name:	WinNT
#	Modification time:	15. 06. 2019 20:01

#	Program:	/corina/corina34_cracker 3.40 0067  02.08.2006

@<TRIPOS>MOLECULE
ASD01913258
  44   47    0    0    0
SMALL
NO_CHARGES


@<TRIPOS>ATOM
   1 C1            -2.5996     1.1488     0.3201 C.3     
   2 N2            -2.2759    -0.2805     0.2689 N.am    
   3 C3            -3.5164    -1.0083     0.5549 C.3     
   4 C4            -4.6041     0.0110     0.7818 C.ar    
   5 C5            -5.9469    -0.1400     1.0827 C.ar    
   6 C6            -6.7499     0.9724     1.2450 C.ar    
   7 C7            -6.2118     2.2384     1.1071 C.ar    
   8 C8            -4.8718     2.3897     0.8073 C.ar    
   9 C9            -4.0667     1.2753     0.6442 C.ar    
  10 C10           -1.0694    -0.8216     0.0083 C.2     
  11 O11           -0.1390    -0.1073    -0.3105 O.2     
  12 C12           -0.8775    -2.2842     0.1101 C.ar    
  13 C13           -1.9722    -3.1184     0.3262 C.ar    
  14 C14           -1.7821    -4.4970     0.4205 C.ar    
  15 C15           -0.4957    -5.0316     0.2977 C.ar    
  16 C16            0.5834    -4.1982     0.0837 C.ar    
  17 C17            0.4007    -2.8327    -0.0159 C.ar    
  18 C18           -0.2872    -6.5206     0.3996 C.3     
  19 F19            1.0723    -6.8128     0.2461 F       
  20 F20           -0.7217    -6.9677     1.6521 F       
  21 F21           -1.0187    -7.1638    -0.6046 F       
  22 C22           -2.9011    -5.3624     0.6430 C.1     
  23 C23           -3.8185    -6.0719     0.8254 C.1     
  24 C24           -4.9375    -6.9374     1.0479 C.ar    
  25 C25           -4.7393    -8.3175     1.1413 C.ar    
  26 C26           -5.8304    -9.1393     1.3567 C.ar    
  27 C27           -7.0862    -8.5581     1.4725 C.ar    
  28 C28           -7.2116    -7.1847     1.3700 C.ar    
  29 N29           -6.1569    -6.4216     1.1696 N.ar    
  30 H30           -2.0068     1.6343     1.0954 H       
  31 H31           -2.3937     1.6091    -0.6462 H       
  32 H32           -3.7759    -1.6432    -0.2922 H       
  33 H33           -3.3890    -1.6180     1.4494 H       
  34 H34           -6.3675    -1.1289     1.1904 H       
  35 H35           -7.7975     0.8530     1.4790 H       
  36 H36           -6.8388     3.1087     1.2334 H       
  37 H37           -4.4518     3.3788     0.6994 H       
  38 H38           -2.9632    -2.6996     0.4206 H       
  39 H39            1.5748    -4.6160    -0.0105 H       
  40 H40            1.2492    -2.1870    -0.1879 H       
  41 H41           -3.7483    -8.7364     1.0461 H       
  42 H42           -5.7086   -10.2097     1.4330 H       
  43 H43           -7.9577    -9.1735     1.6407 H       
  44 H44           -8.1876    -6.7311     1.4598 H       
@<TRIPOS>BOND
   1    1    2 1
   2    1    9 1
   3    1   30 1
   4    1   31 1
   5    2    3 1
   6    2   10 am
   7    3    4 1
   8    3   32 1
   9    3   33 1
  10    4    5 ar
  11    4    9 ar
  12    5    6 ar
  13    5   34 1
  14    6    7 ar
  15    6   35 1
  16    7    8 ar
  17    7   36 1
  18    8    9 ar
  19    8   37 1
  20   10   11 2
  21   10   12 1
  22   12   13 ar
  23   12   17 ar
  24   13   14 ar
  25   13   38 1
  26   14   15 ar
  27   14   22 1
  28   15   16 ar
  29   15   18 1
  30   16   17 ar
  31   16   39 1
  32   17   40 1
  33   18   19 1
  34   18   20 1
  35   18   21 1
  36   22   23 3
  37   23   24 1
  38   24   25 ar
  39   24   29 ar
  40   25   26 ar
  41   25   41 1
  42   26   27 ar
  43   26   42 1
  44   27   28 ar
  45   27   43 1
  46   28   29 ar
  47   28   44 1

#	End of record

