#	Name: ASD05143069
#	Creating user name:	WinNT
#	Creation time:	15. 06. 2019 20:57

#	Modifying user name:	WinNT
#	Modification time:	15. 06. 2019 20:57

#	Program:	/corina/corina34_cracker 3.40 0067  02.08.2006

@<TRIPOS>MOLECULE
ASD05143069
 148  152    0    0    0
SMALL
NO_CHARGES


@<TRIPOS>ATOM
   1 C1            -0.1020     4.5657     0.5782 C.2     
   2 C2            -0.1962     3.1750     1.1511 C.3     
   3 N3             1.1050     5.1143     0.3358 N.am    
   4 O4            -1.1123     5.1893     0.3307 O.2     
   5 C5             1.1965     6.4663    -0.2211 C.3     
   6 C6             0.5249     7.4570     0.7320 C.3     
   7 C7             0.5030     6.5067    -1.5584 C.2     
   8 C8             1.3043     7.5075     2.0476 C.3     
   9 C9             0.6327     8.4982     3.0006 C.3     
  10 N10            1.3790     8.5466     4.2603 N.pl3   
  11 C11            0.9604     9.3731     5.2761 C.2     
  12 N12            1.6608     9.4185     6.4582 N.pl3   
  13 N13           -0.1006    10.1137     5.1183 N.2     
  14 O14           -0.3103     5.6541    -1.8458 O.2     
  15 N15            0.7864     7.4904    -2.4350 N.am    
  16 C16            0.1122     7.5298    -3.7351 C.3     
  17 C17            0.0987     8.9671    -4.2593 C.3     
  18 C18           -0.4557     9.8984    -3.1796 C.3     
  19 C19            0.3768    11.1813    -3.1361 C.3     
  20 N20            1.8051    10.8376    -3.1243 N.3     
  21 C21            2.6296    12.0208    -2.8447 C.3     
  22 C22            3.9958    11.8592    -3.5144 C.3     
  23 C23            5.0052    12.7955    -2.8472 C.3     
  24 C24            6.1196    13.1332    -3.8397 C.3     
  25 N25            7.2363    12.1875    -3.6441 N.am    
  26 C26            6.6016    14.5404    -3.5978 C.2     
  27 N27            5.9014    15.5852    -4.0821 N.am    
  28 O28            7.6197    14.7327    -2.9673 O.2     
  29 C29            7.5236    11.3594    -4.6861 C.2     
  30 O30            6.8751    11.4100    -5.7097 O.2     
  31 C31            8.6601    10.3793    -4.5479 C.3     
  32 N32            8.5415     9.3600    -5.6152 N.am    
  33 C33            9.9933    11.1166    -4.6884 C.3     
  34 C34            8.2996     8.0869    -5.1823 C.2     
  35 O35            8.1877     7.8482    -3.9985 O.2     
  36 C36            8.1737     6.9848    -6.2021 C.3     
  37 N37            7.5252     5.8196    -5.5680 N.am    
  38 C38            7.3220     7.4689    -7.3774 C.3     
  39 C39            6.3437     5.4123    -6.1074 C.2     
  40 O40            5.8709     5.9941    -7.0608 O.2     
  41 C41            5.6311     4.2291    -5.5052 C.3     
  42 C42           11.1270    10.1584    -4.4283 C.2     
  43 C43           11.7459     9.2558    -5.4020 C.ar    
  44 C44           12.7527     8.5634    -4.7050 C.ar    
  45 N45           12.7358     9.0208    -3.4065 N.pl3   
  46 C46           11.7652     9.9744    -3.2617 C.2     
  47 C47           11.5301     8.9941    -6.7565 C.ar    
  48 C48           12.2993     8.0655    -7.3987 C.ar    
  49 C49           13.2939     7.3791    -6.7153 C.ar    
  50 C50           13.5243     7.6223    -5.3791 C.ar    
  51 N51            4.2208     4.2468    -5.9571 N.am    
  52 C52            5.6825     4.3209    -3.9788 C.3     
  53 C53            7.0996     4.1120    -3.5105 C.ar    
  54 C54            7.7845     5.1458    -2.8994 C.ar    
  55 C55            9.0838     4.9553    -2.4690 C.ar    
  56 C56            9.6997     3.7285    -2.6502 C.ar    
  57 C57            9.0128     2.6939    -3.2624 C.ar    
  58 C58            7.7116     2.8851    -3.6871 C.ar    
  59 C59            0.8481     6.6464    -4.7095 C.2     
  60 O60            1.2002     7.0784    -5.7866 O.2     
  61 C61            7.4150     6.4602    -8.5241 C.3     
  62 C62            6.4459     6.8631    -9.6374 C.3     
  63 N63            6.5349     5.8973   -10.7354 N.pl3   
  64 C64            5.7512     6.0542   -11.8541 C.2     
  65 N65            5.8348     5.1478   -12.8845 N.pl3   
  66 N66            4.9291     7.0621   -11.9378 N.2     
  67 N67            1.1122     5.3564    -4.3631 N.am    
  68 C68            1.8389     4.5413    -5.3569 C.3     
  69 C69            3.2983     4.5055    -4.9833 C.2     
  70 O70            3.6476     4.7024    -3.8387 O.2     
  71 C71            1.6803     5.1641    -6.7454 C.3     
  72 C72            0.2151     5.3047    -7.0684 C.2     
  73 C73           -0.4107     6.4420    -7.4268 C.2     
  74 N74           -1.7269     6.1237    -7.6269 N.pl3   
  75 C75           -1.8597     4.8020    -7.3837 C.2     
  76 N76           -0.6932     4.3178    -7.0551 N.2     
  77 F77           10.9701     3.5412    -2.2303 F       
  78 H78           -0.2055     3.2303     2.2396 H       
  79 H79           -1.1137     2.7003     0.8035 H       
  80 H80            0.6626     2.5886     0.8244 H       
  81 H81            1.9130     4.6141     0.5300 H       
  82 H82            2.2448     6.7371    -0.3471 H       
  83 H83            0.5141     8.4478     0.2777 H       
  84 H84           -0.4982     7.1360     0.9279 H       
  85 H85            1.3151     6.5167     2.5018 H       
  86 H86            2.3274     7.8285     1.8516 H       
  87 H87            0.6219     9.4890     2.5464 H       
  88 H88           -0.3904     8.1772     3.1965 H       
  89 H89            2.1685     7.9954     4.3777 H       
  90 H90            2.4503     8.8674     6.5757 H       
  91 H91            1.3654    10.0016     7.1749 H       
  92 H92           -0.3959    10.6968     5.8349 H       
  93 H93            1.4369     8.1723    -2.2052 H       
  94 H94           -0.9121     7.1739    -3.6240 H       
  95 H95            1.1142     9.2703    -4.5143 H       
  96 H96           -0.5313     9.0242    -5.1469 H       
  97 H97           -1.4920    10.1454    -3.4100 H       
  98 H98           -0.4074     9.4010    -2.2109 H       
  99 H99            0.1563    11.7875    -4.0147 H       
 100 H100           0.1309    11.7437    -2.2354 H       
 101 H101           1.9941    10.1004    -2.4618 H       
 102 H102           2.1351    12.9093    -3.2373 H       
 103 H103           2.7627    12.1248    -1.7679 H       
 104 H104           4.3323    10.8278    -3.4091 H       
 105 H105           3.9134    12.1082    -4.5724 H       
 106 H106           4.5023    13.7124    -2.5396 H       
 107 H107           5.4334    12.3049    -1.9731 H       
 108 H108           5.7407    13.0452    -4.8580 H       
 109 H109           7.7399    12.1578    -2.8156 H       
 110 H110           5.0872    15.4314    -4.5864 H       
 111 H111           6.2117    16.4910    -3.9264 H       
 112 H112           8.6086     9.8951    -3.5727 H       
 113 H113           8.6292     9.5806    -6.5557 H       
 114 H114          10.0816    11.5185    -5.6977 H       
 115 H115          10.0348    11.9329    -3.9673 H       
 116 H116           9.1643     6.7023    -6.5586 H       
 117 H117           7.9209     5.3675    -4.8065 H       
 118 H118           6.2837     7.5627    -7.0593 H       
 119 H119           7.6874     8.4384    -7.7158 H       
 120 H120           6.1095     3.3069    -5.8352 H       
 121 H121          13.3266     8.7153    -2.7003 H       
 122 H122          11.5407    10.4961    -2.3431 H       
 123 H123          10.7577     9.5237    -7.2944 H       
 124 H124          12.1321     7.8634    -8.4464 H       
 125 H125          13.8936     6.6477    -7.2366 H       
 126 H126          14.3006     7.0834    -4.8563 H       
 127 H127           3.9697     4.0863    -6.8802 H       
 128 H128           5.3364     5.3048    -3.6621 H       
 129 H129           5.0402     3.5534    -3.5468 H       
 130 H130           7.3040     6.1027    -2.7585 H       
 131 H131           9.6188     5.7631    -1.9920 H       
 132 H132           9.4921     1.7365    -3.4042 H       
 133 H133           7.1756     2.0782    -4.1646 H       
 134 H134           8.4324     6.4473    -8.9150 H       
 135 H135           7.1542     5.4676    -8.1569 H       
 136 H136           5.4285     6.8760    -9.2465 H       
 137 H137           6.7067     7.8557   -10.0046 H       
 138 H138           7.1468     5.1472   -10.6732 H       
 139 H139           6.4466     4.3977   -12.8223 H       
 140 H140           5.2819     5.2585   -13.6738 H       
 141 H141           4.3762     7.1728   -12.7270 H       
 142 H142           0.8368     4.9915    -3.5075 H       
 143 H143           1.4381     3.5277    -5.3612 H       
 144 H144           2.1512     6.1470    -6.7586 H       
 145 H145           2.1561     4.5232    -7.4876 H       
 146 H146           0.0393     7.4178    -7.5351 H       
 147 H147          -2.4324     6.7336    -7.8936 H       
 148 H148          -2.7782     4.2383    -7.4536 H       
@<TRIPOS>BOND
   1    1    2 1
   2    1    3 am
   3    1    4 2
   4    2   78 1
   5    2   79 1
   6    2   80 1
   7    3    5 1
   8    3   81 1
   9    5    6 1
  10    5    7 1
  11    5   82 1
  12    6    8 1
  13    6   83 1
  14    6   84 1
  15    7   14 2
  16    7   15 am
  17    8    9 1
  18    8   85 1
  19    8   86 1
  20    9   10 1
  21    9   87 1
  22    9   88 1
  23   10   11 1
  24   10   89 1
  25   11   12 1
  26   11   13 2
  27   12   90 1
  28   12   91 1
  29   13   92 1
  30   15   16 1
  31   15   93 1
  32   16   17 1
  33   16   59 1
  34   16   94 1
  35   17   18 1
  36   17   95 1
  37   17   96 1
  38   18   19 1
  39   18   97 1
  40   18   98 1
  41   19   20 1
  42   19   99 1
  43   19  100 1
  44   20   21 1
  45   20  101 1
  46   21   22 1
  47   21  102 1
  48   21  103 1
  49   22   23 1
  50   22  104 1
  51   22  105 1
  52   23   24 1
  53   23  106 1
  54   23  107 1
  55   24   25 1
  56   24   26 1
  57   24  108 1
  58   25   29 am
  59   25  109 1
  60   26   27 am
  61   26   28 2
  62   27  110 1
  63   27  111 1
  64   29   30 2
  65   29   31 1
  66   31   32 1
  67   31   33 1
  68   31  112 1
  69   32   34 am
  70   32  113 1
  71   33   42 1
  72   33  114 1
  73   33  115 1
  74   34   35 2
  75   34   36 1
  76   36   37 1
  77   36   38 1
  78   36  116 1
  79   37   39 am
  80   37  117 1
  81   38   61 1
  82   38  118 1
  83   38  119 1
  84   39   40 2
  85   39   41 1
  86   41   51 1
  87   41   52 1
  88   41  120 1
  89   42   43 1
  90   42   46 2
  91   43   44 ar
  92   43   47 ar
  93   44   45 1
  94   44   50 ar
  95   45   46 1
  96   45  121 1
  97   46  122 1
  98   47   48 ar
  99   47  123 1
 100   48   49 ar
 101   48  124 1
 102   49   50 ar
 103   49  125 1
 104   50  126 1
 105   51   69 am
 106   51  127 1
 107   52   53 1
 108   52  128 1
 109   52  129 1
 110   53   54 ar
 111   53   58 ar
 112   54   55 ar
 113   54  130 1
 114   55   56 ar
 115   55  131 1
 116   56   57 ar
 117   56   77 1
 118   57   58 ar
 119   57  132 1
 120   58  133 1
 121   59   60 2
 122   59   67 am
 123   61   62 1
 124   61  134 1
 125   61  135 1
 126   62   63 1
 127   62  136 1
 128   62  137 1
 129   63   64 1
 130   63  138 1
 131   64   65 1
 132   64   66 2
 133   65  139 1
 134   65  140 1
 135   66  141 1
 136   67   68 1
 137   67  142 1
 138   68   69 1
 139   68   71 1
 140   68  143 1
 141   69   70 2
 142   71   72 1
 143   71  144 1
 144   71  145 1
 145   72   73 2
 146   72   76 1
 147   73   74 1
 148   73  146 1
 149   74   75 1
 150   74  147 1
 151   75   76 2
 152   75  148 1

#	End of record

