#	Name: ASD01148712
#	Creating user name:	WinNT
#	Creation time:	15. 06. 2019 19:03

#	Modifying user name:	WinNT
#	Modification time:	15. 06. 2019 19:03

#	Program:	/corina/corina34_cracker 3.40 0067  02.08.2006

@<TRIPOS>MOLECULE
ASD01148712
  57   60    0    0    0
SMALL
NO_CHARGES


@<TRIPOS>ATOM
   1 N1            -0.0159     1.3407     0.0807 N.pl3   
   2 C2             0.0025     0.0050    -0.1114 C.2     
   3 C3             1.3184    -0.4071    -0.1549 C.2     
   4 C4             2.1213     0.7500     0.0212 C.2     
   5 C5             1.2768     1.8042     0.1628 C.2     
   6 C6             1.7984    -1.7847    -0.3475 C.2     
   7 O7             1.0017    -2.6919    -0.4876 O.2     
   8 O8             3.1216    -2.0406    -0.3685 O.3     
   9 C9            -1.1688     2.1311     0.1753 C.ar    
  10 C10           -2.0120     2.0031     1.2711 C.ar    
  11 C11           -3.1479     2.7836     1.3615 C.ar    
  12 C12           -3.4458     3.6918     0.3622 C.ar    
  13 C13           -2.6080     3.8217    -0.7302 C.ar    
  14 C14           -1.4676     3.0480    -0.8236 C.ar    
  15 S15           -4.8961     4.6854     0.4810 S.o2    
  16 O16           -5.2285     5.0703    -0.8459 O.2     
  17 O17           -5.7918     3.9874     1.3353 O.2     
  18 N18           -4.4751     6.0739     1.2791 N.am    
  19 C19           -1.2064    -0.8836    -0.2533 C.3     
  20 C20            2.4325     5.8507     0.7599 C.ar    
  21 C21            1.1535     5.4300     1.1245 C.ar    
  22 C22            0.7781     4.1195     0.9314 C.ar    
  23 C23            1.6785     3.2112     0.3701 C.ar    
  24 C24            2.9590     3.6333     0.0054 C.ar    
  25 C25            3.3325     4.9442     0.1993 C.ar    
  26 C26            2.8338     7.2636     0.9632 C.ar    
  27 C27            4.1112     7.6873     0.5999 C.ar    
  28 C28            4.4790     9.0036     0.7910 C.ar    
  29 C29            3.5829     9.9020     1.3418 C.ar    
  30 C30            2.3140     9.4871     1.7046 C.ar    
  31 C31            1.9332     8.1746     1.5129 C.ar    
  32 C32            3.5227    -3.4225    -0.5626 C.3     
  33 C33            5.0499    -3.5157    -0.5578 C.3     
  34 H34            3.2006     0.7855     0.0392 H       
  35 H35           -1.7801     1.2936     2.0516 H       
  36 H36           -3.8043     2.6842     2.2133 H       
  37 H37           -2.8435     4.5316    -1.5093 H       
  38 H38           -0.8114     3.1530    -1.6749 H       
  39 H39           -3.5617     6.2030     1.5790 H       
  40 H40           -5.1418     6.7582     1.4466 H       
  41 H41           -1.4860    -0.9514    -1.3046 H       
  42 H42           -0.9724    -1.8786     0.1254 H       
  43 H43           -2.0350    -0.4635     0.3168 H       
  44 H44            0.4574     6.1326     1.5585 H       
  45 H45           -0.2119     3.7939     1.2144 H       
  46 H46            3.6557     2.9317    -0.4290 H       
  47 H47            4.3224     5.2709    -0.0830 H       
  48 H48            4.8118     6.9867     0.1702 H       
  49 H49            5.4686     9.3329     0.5103 H       
  50 H50            3.8750    10.9312     1.4895 H       
  51 H51            1.6187    10.1927     2.1348 H       
  52 H52            0.9409     7.8528     1.7923 H       
  53 H53            3.1188    -4.0348     0.2437 H       
  54 H54            3.1399    -3.7812    -1.5180 H       
  55 H55            5.4538    -2.9034    -1.3640 H       
  56 H56            5.4328    -3.1570     0.3977 H       
  57 H57            5.3510    -4.5531    -0.7035 H       
@<TRIPOS>BOND
   1    1    2 1
   2    1    5 1
   3    1    9 1
   4    2    3 2
   5    2   19 1
   6    3    4 1
   7    3    6 1
   8    4    5 2
   9    4   34 1
  10    5   23 1
  11    6    7 2
  12    6    8 1
  13    8   32 1
  14    9   10 ar
  15    9   14 ar
  16   10   11 ar
  17   10   35 1
  18   11   12 ar
  19   11   36 1
  20   12   13 ar
  21   12   15 1
  22   13   14 ar
  23   13   37 1
  24   14   38 1
  25   15   16 2
  26   15   17 2
  27   15   18 am
  28   18   39 1
  29   18   40 1
  30   19   41 1
  31   19   42 1
  32   19   43 1
  33   20   21 ar
  34   20   25 ar
  35   20   26 1
  36   21   22 ar
  37   21   44 1
  38   22   23 ar
  39   22   45 1
  40   23   24 ar
  41   24   25 ar
  42   24   46 1
  43   25   47 1
  44   26   27 ar
  45   26   31 ar
  46   27   28 ar
  47   27   48 1
  48   28   29 ar
  49   28   49 1
  50   29   30 ar
  51   29   50 1
  52   30   31 ar
  53   30   51 1
  54   31   52 1
  55   32   33 1
  56   32   53 1
  57   32   54 1
  58   33   55 1
  59   33   56 1
  60   33   57 1

#	End of record

