#	Name: ASD01913322
#	Creating user name:	WinNT
#	Creation time:	15. 06. 2019 20:01

#	Modifying user name:	WinNT
#	Modification time:	15. 06. 2019 20:01

#	Program:	/corina/corina34_cracker 3.40 0067  02.08.2006

@<TRIPOS>MOLECULE
ASD01913322
  46   48    0    0    0
SMALL
NO_CHARGES


@<TRIPOS>ATOM
   1 C1            -0.0169     1.3928     0.0097 C.ar    
   2 C2             0.0021    -0.0041     0.0020 C.ar    
   3 C3             1.2387    -0.6635    -0.0134 C.ar    
   4 C4             2.3900     0.1030    -0.0203 C.ar    
   5 C5             2.2856     1.4827    -0.0119 C.ar    
   6 N6             1.1081     2.0773     0.0026 N.ar    
   7 C7             3.5383     2.3205    -0.0189 C.3     
   8 C8            -1.2208    -0.7492     0.0102 C.1     
   9 C9            -2.2233    -1.3601     0.0169 C.1     
  10 C10           -3.4461    -2.1052     0.0251 C.ar    
  11 C11           -3.4170    -3.5023     0.0173 C.ar    
  12 C12           -4.5988    -4.2132     0.0253 C.ar    
  13 C13           -5.8113    -3.5464     0.0404 C.ar    
  14 C14           -5.8479    -2.1632     0.0477 C.ar    
  15 C15           -4.6742    -1.4389     0.0467 C.ar    
  16 N16            3.8647     2.6994    -1.3959 N.am    
  17 C17            3.3049     3.9417    -1.9134 C.3     
  18 C18            4.0925     4.4153    -3.1356 C.3     
  19 C19            4.2129     3.2493    -4.1242 C.3     
  20 C20            5.1077     2.1759    -3.4996 C.3     
  21 C21            4.6595     1.8888    -2.0955 C.2     
  22 O22            5.0336     0.8604    -1.5725 O.2     
  23 C23            3.3556     5.5790    -3.8018 C.3     
  24 C24            5.4885     4.8678    -2.7030 C.3     
  25 H25           -0.9619     1.9156     0.0170 H       
  26 H26            1.2913    -1.7422    -0.0193 H       
  27 H27            3.3606    -0.3705    -0.0318 H       
  28 H28            3.3779     3.2190     0.5769 H       
  29 H29            4.3620     1.7459     0.4048 H       
  30 H30           -2.4715    -4.0240     0.0048 H       
  31 H31           -4.5779    -5.2930     0.0193 H       
  32 H32           -6.7335    -4.1084     0.0462 H       
  33 H33           -6.7979    -1.6495     0.0592 H       
  34 H34           -4.7042    -0.3593     0.0528 H       
  35 H35            2.2650     3.7781    -2.1961 H       
  36 H36            3.3482     4.7068    -1.1383 H       
  37 H37            3.2252     2.8334    -4.3232 H       
  38 H38            4.6576     3.6017    -5.0549 H       
  39 H39            5.0491     1.2645    -4.0946 H       
  40 H40            6.1386     2.5294    -3.4816 H       
  41 H41            3.2585     6.4011    -3.0927 H       
  42 H42            3.9187     5.9149    -4.6725 H       
  43 H43            2.3646     5.2501    -4.1147 H       
  44 H44            6.0122     4.0338    -2.2357 H       
  45 H45            6.0479     5.2049    -3.5757 H       
  46 H46            5.4001     5.6870    -1.9894 H       
@<TRIPOS>BOND
   1    1    2 ar
   2    1    6 ar
   3    1   25 1
   4    2    3 ar
   5    2    8 1
   6    3    4 ar
   7    3   26 1
   8    4    5 ar
   9    4   27 1
  10    5    6 ar
  11    5    7 1
  12    7   16 1
  13    7   28 1
  14    7   29 1
  15    8    9 3
  16    9   10 1
  17   10   11 ar
  18   10   15 ar
  19   11   12 ar
  20   11   30 1
  21   12   13 ar
  22   12   31 1
  23   13   14 ar
  24   13   32 1
  25   14   15 ar
  26   14   33 1
  27   15   34 1
  28   16   17 1
  29   16   21 am
  30   17   18 1
  31   17   35 1
  32   17   36 1
  33   18   19 1
  34   18   23 1
  35   18   24 1
  36   19   20 1
  37   19   37 1
  38   19   38 1
  39   20   21 1
  40   20   39 1
  41   20   40 1
  42   21   22 2
  43   23   41 1
  44   23   42 1
  45   23   43 1
  46   24   44 1
  47   24   45 1
  48   24   46 1

#	End of record

