#	Name: ASD01910920
#	Creating user name:	WinNT
#	Creation time:	15. 06. 2019 19:56

#	Modifying user name:	WinNT
#	Modification time:	15. 06. 2019 19:56

#	Program:	/corina/corina34_cracker 3.40 0067  02.08.2006

@<TRIPOS>MOLECULE
ASD01910920
  55   58    0    0    0
SMALL
NO_CHARGES


@<TRIPOS>ATOM
   1 N1             0.2348     1.2069    -0.0952 N.3     
   2 C2             0.1033    -0.2481     0.0590 C.3     
   3 C3            -1.3782    -0.6110     0.2064 C.3     
   4 N4            -2.1151    -0.0369    -0.9297 N.am    
   5 C5            -1.9268     1.3902    -1.2316 C.3     
   6 C6            -0.4237     1.6743    -1.3223 C.3     
   7 C7            -2.9413    -0.7983    -1.6740 C.2     
   8 C8            -3.7670    -0.1770    -2.7317 C.ar    
   9 C9            -3.9498    -0.8316    -3.9518 C.ar    
  10 C10           -4.7205    -0.2534    -4.9414 C.ar    
  11 C11           -5.3156     0.9743    -4.7330 C.ar    
  12 C12           -5.1409     1.6416    -3.5165 C.ar    
  13 C13           -4.3688     1.0599    -2.5111 C.ar    
  14 C14           -5.7583     2.9156    -3.3013 C.1     
  15 O15           -3.0077    -1.9957    -1.4759 O.2     
  16 C16           -6.2644     3.9601    -3.1249 C.1     
  17 C17           -6.8818     5.2341    -2.9098 C.ar    
  18 C18           -6.7141     5.9096    -1.6984 C.ar    
  19 N19           -7.2822     7.0811    -1.5014 N.ar    
  20 C20           -8.0240     7.6603    -2.4257 C.ar    
  21 C21           -8.2392     7.0565    -3.6520 C.ar    
  22 C22           -7.6601     5.8278    -3.9129 C.ar    
  23 C23            1.5766     1.5939    -0.0685 C.ar    
  24 C24            2.4405     1.1795    -1.0740 C.ar    
  25 C25            3.7668     1.5645    -1.0448 C.ar    
  26 C26            4.2346     2.3609    -0.0160 C.ar    
  27 C27            3.3769     2.7753     0.9868 C.ar    
  28 C28            2.0487     2.3989     0.9607 C.ar    
  29 C29            1.1148     2.8513     2.0535 C.3     
  30 C30            4.7050     1.1154    -2.1353 C.3     
  31 H31            0.5140    -0.7455    -0.8196 H       
  32 H32            0.6468    -0.5702     0.9473 H       
  33 H33           -1.4913    -1.6951     0.2061 H       
  34 H34           -1.7648    -0.1999     1.1390 H       
  35 H35           -2.4026     1.6291    -2.1827 H       
  36 H36           -2.3662     1.9936    -0.4373 H       
  37 H37           -0.2624     2.7463    -1.4360 H       
  38 H38           -0.0056     1.1501    -2.1817 H       
  39 H39           -3.4869    -1.7925    -4.1221 H       
  40 H40           -4.8579    -0.7643    -5.8829 H       
  41 H41           -5.9170     1.4207    -5.5111 H       
  42 H42           -4.2303     1.5704    -1.5695 H       
  43 H43           -6.1139     5.4672    -0.9171 H       
  44 H44           -8.4713     8.6220    -2.2218 H       
  45 H45           -8.8494     7.5417    -4.3994 H       
  46 H46           -7.8115     5.3342    -4.8615 H       
  47 H47            2.0759     0.5568    -1.8775 H       
  48 H48            5.2722     2.6599     0.0048 H       
  49 H49            3.7457     3.3971     1.7892 H       
  50 H50            0.5926     3.7535     1.7348 H       
  51 H51            0.3887     2.0649     2.2596 H       
  52 H52            1.6875     3.0627     2.9565 H       
  53 H53            4.6994     1.8468    -2.9434 H       
  54 H54            5.7140     1.0264    -1.7327 H       
  55 H55            4.3801     0.1481    -2.5185 H       
@<TRIPOS>BOND
   1    1    2 1
   2    1   23 1
   3    1    6 1
   4    2    3 1
   5    2   31 1
   6    2   32 1
   7    3    4 1
   8    3   33 1
   9    3   34 1
  10    4    5 1
  11    4    7 am
  12    5    6 1
  13    5   35 1
  14    5   36 1
  15    6   37 1
  16    6   38 1
  17    7    8 1
  18    7   15 2
  19    8    9 ar
  20    8   13 ar
  21    9   10 ar
  22    9   39 1
  23   10   11 ar
  24   10   40 1
  25   11   12 ar
  26   11   41 1
  27   12   13 ar
  28   12   14 1
  29   13   42 1
  30   14   16 3
  31   16   17 1
  32   17   18 ar
  33   17   22 ar
  34   18   19 ar
  35   18   43 1
  36   19   20 ar
  37   20   21 ar
  38   20   44 1
  39   21   22 ar
  40   21   45 1
  41   22   46 1
  42   23   24 ar
  43   23   28 ar
  44   24   25 ar
  45   24   47 1
  46   25   26 ar
  47   25   30 1
  48   26   27 ar
  49   26   48 1
  50   27   28 ar
  51   27   49 1
  52   28   29 1
  53   29   50 1
  54   29   51 1
  55   29   52 1
  56   30   53 1
  57   30   54 1
  58   30   55 1

#	End of record

