#	Name: ASD01120093
#	Creating user name:	WinNT
#	Creation time:	15. 06. 2019 18:58

#	Modifying user name:	WinNT
#	Modification time:	15. 06. 2019 18:58

#	Program:	/corina/corina34_cracker 3.40 0067  02.08.2006

@<TRIPOS>MOLECULE
ASD01120093
  54   57    0    0    0
SMALL
NO_CHARGES


@<TRIPOS>ATOM
   1 C1             0.5731     1.3764     0.5575 C.ar    
   2 C2             0.5704    -0.0125     0.3677 C.ar    
   3 C3            -0.5139    -0.6425    -0.2022 C.ar    
   4 C4            -1.6238     0.1150    -0.5952 C.ar    
   5 C5            -1.6139     1.5185    -0.4001 C.ar    
   6 C6            -0.5016     2.1338     0.1866 C.ar    
   7 N7            -2.7047    -0.4504    -1.1553 N.ar    
   8 C8            -3.7298     0.2855    -1.5137 C.ar    
   9 N9            -3.7651     1.5985    -1.3512 N.ar    
  10 C10           -2.7500     2.2574    -0.8078 C.ar    
  11 N11           -2.8006     3.6272    -0.6439 N.pl3   
  12 C12           -3.9750     4.3240    -0.9432 C.ar    
  13 C13           -5.2087     3.7264    -0.7335 C.ar    
  14 C14           -6.3758     4.4248    -1.0327 C.ar    
  15 C15           -6.2975     5.7203    -1.5412 C.ar    
  16 C16           -5.0652     6.3082    -1.7476 C.ar    
  17 C17           -3.9067     5.6183    -1.4457 C.ar    
  18 C18           -7.6990     3.7914    -0.8114 C.2     
  19 C19           -8.8644     4.4137    -1.0806 C.2     
  20 S20          -10.1744     3.3083    -0.6733 S.3     
  21 C21           -9.0417     2.1255    -0.1842 C.2     
  22 N22           -7.8396     2.5621    -0.3368 N.2     
  23 C23           -9.3992     0.7607     0.3452 C.3     
  24 O24            1.6552     1.9757     1.1223 O.3     
  25 O25            1.6489    -0.7449     0.7495 O.3     
  26 C26            1.5979     3.3938     1.2893 C.3     
  27 C27            2.8952     3.8841     1.9354 C.3     
  28 C28            1.5424    -2.1653     0.6339 C.3     
  29 C29            1.8949    -2.5885    -0.7935 C.3     
  30 C30            2.5081    -2.8308     1.6164 C.3     
  31 H31           -0.5077    -1.7129    -0.3452 H       
  32 H32           -0.4896     3.2032     0.3372 H       
  33 H33           -4.5830    -0.2019    -1.9619 H       
  34 H34           -2.0214     4.1062    -0.3211 H       
  35 H35           -5.2642     2.7223    -0.3397 H       
  36 H36           -7.2009     6.2643    -1.7742 H       
  37 H37           -5.0069     7.3118    -2.1423 H       
  38 H38           -2.9454     6.0828    -1.6086 H       
  39 H39           -8.9752     5.4126    -1.4759 H       
  40 H40          -10.4835     0.6512     0.3651 H       
  41 H41           -8.9686    -0.0041    -0.3012 H       
  42 H42           -9.0041     0.6476     1.3548 H       
  43 H43            1.4742     3.8695     0.3164 H       
  44 H44            0.7537     3.6505     1.9292 H       
  45 H45            3.7394     3.6274     1.2954 H       
  46 H46            2.8515     4.9657     2.0627 H       
  47 H47            3.0190     3.4084     2.9083 H       
  48 H48            0.5220    -2.4729     0.8625 H       
  49 H49            2.9153    -2.2808    -1.0222 H       
  50 H50            1.8137    -3.6719    -0.8818 H       
  51 H51            1.2069    -2.1144    -1.4935 H       
  52 H52            2.2569    -2.5292     2.6333 H       
  53 H53            2.4269    -3.9142     1.5281 H       
  54 H54            3.5284    -2.5231     1.3877 H       
@<TRIPOS>BOND
   1    1    2 ar
   2    1   24 1
   3    1    6 ar
   4    2    3 ar
   5    2   25 1
   6    3    4 ar
   7    3   31 1
   8    4    5 ar
   9    4    7 ar
  10    5    6 ar
  11    5   10 ar
  12    6   32 1
  13    7    8 ar
  14    8    9 ar
  15    8   33 1
  16    9   10 ar
  17   10   11 1
  18   11   12 1
  19   11   34 1
  20   12   13 ar
  21   12   17 ar
  22   13   14 ar
  23   13   35 1
  24   14   15 ar
  25   14   18 1
  26   15   16 ar
  27   15   36 1
  28   16   17 ar
  29   16   37 1
  30   17   38 1
  31   18   19 2
  32   18   22 1
  33   19   20 1
  34   19   39 1
  35   20   21 1
  36   21   22 2
  37   21   23 1
  38   23   40 1
  39   23   41 1
  40   23   42 1
  41   24   26 1
  42   25   28 1
  43   26   27 1
  44   26   43 1
  45   26   44 1
  46   27   45 1
  47   27   46 1
  48   27   47 1
  49   28   29 1
  50   28   30 1
  51   28   48 1
  52   29   49 1
  53   29   50 1
  54   29   51 1
  55   30   52 1
  56   30   53 1
  57   30   54 1

#	End of record

