#	Name: ASD01913783
#	Creating user name:	WinNT
#	Creation time:	15. 06. 2019 20:02

#	Modifying user name:	WinNT
#	Modification time:	15. 06. 2019 20:02

#	Program:	/corina/corina34_cracker 3.40 0067  02.08.2006

@<TRIPOS>MOLECULE
ASD01913783
  36   39    0    0    0
SMALL
NO_CHARGES


@<TRIPOS>ATOM
   1 C1            -0.0059     1.3615     0.1938 C.ar    
   2 C2            -0.0013     0.0016    -0.0622 C.ar    
   3 C3             1.1888    -0.6582    -0.3136 C.ar    
   4 C4             2.3802     0.0366    -0.3111 C.ar    
   5 C5             2.3835     1.4101    -0.0539 C.ar    
   6 C6             1.1777     2.0695     0.1996 C.ar    
   7 C7             3.6165     2.1383    -0.0491 C.1     
   8 C8             4.6274     2.7353    -0.0452 C.1     
   9 C9             5.8604     3.4635    -0.0404 C.ar    
  10 C10            5.8720     4.8426     0.2170 C.ar    
  11 C11            8.2483     4.7810    -0.0487 C.ar    
  12 N12            8.2054     3.4779    -0.2825 N.ar    
  13 C13            7.0703     2.8105    -0.2863 C.ar    
  14 C14            7.0856     5.5004     0.2106 C.ar    
  15 N15            9.4756     5.4396    -0.0561 N.am    
  16 C16            9.6472     6.7697    -0.0506 C.2     
  17 O17           10.9324     7.1501    -0.0600 O.3     
  18 C18           11.7760     5.9708    -0.0738 C.3     
  19 C19           10.7970     4.7890    -0.0648 C.3     
  20 O20            8.7224     7.5577    -0.0389 O.2     
  21 C21           13.0842     5.9201    -0.8518 C.3     
  22 C22           13.0981     5.9121     0.6796 C.3     
  23 H23           -0.9390     1.8705     0.3851 H       
  24 H24           -0.9312    -0.5477    -0.0654 H       
  25 H25            1.1848    -1.7198    -0.5119 H       
  26 H26            3.3084    -0.4797    -0.5072 H       
  27 H27            1.1726     3.1309     0.3988 H       
  28 H28            4.9542     5.3763     0.4148 H       
  29 H29            7.0749     1.7482    -0.4810 H       
  30 H30            7.1321     6.5619     0.4043 H       
  31 H31           10.9378     4.1805     0.8285 H       
  32 H32           10.9155     4.1852    -0.9646 H       
  33 H33           13.3306     4.9893    -1.3626 H       
  34 H34           13.4074     6.8322    -1.3536 H       
  35 H35           13.4305     6.8189     1.1850 H       
  36 H36           13.3538     4.9759     1.1760 H       
@<TRIPOS>BOND
   1    1    2 ar
   2    1    6 ar
   3    1   23 1
   4    2    3 ar
   5    2   24 1
   6    3    4 ar
   7    3   25 1
   8    4    5 ar
   9    4   26 1
  10    5    6 ar
  11    5    7 1
  12    6   27 1
  13    7    8 3
  14    8    9 1
  15    9   10 ar
  16    9   13 ar
  17   10   14 ar
  18   10   28 1
  19   11   12 ar
  20   11   15 1
  21   11   14 ar
  22   12   13 ar
  23   13   29 1
  24   14   30 1
  25   15   16 am
  26   15   19 1
  27   16   17 1
  28   16   20 2
  29   17   18 1
  30   18   19 1
  31   18   21 1
  32   18   22 1
  33   19   31 1
  34   19   32 1
  35   21   22 1
  36   21   33 1
  37   21   34 1
  38   22   35 1
  39   22   36 1

#	End of record

