#	Name: ASD08070103
#	Creating user name:	WinNT
#	Creation time:	15. 06. 2019 21:14

#	Modifying user name:	WinNT
#	Modification time:	15. 06. 2019 21:14

#	Program:	/corina/corina34_cracker 3.40 0067  02.08.2006

@<TRIPOS>MOLECULE
ASD08070103
  39   40    0    0    0
SMALL
NO_CHARGES


@<TRIPOS>ATOM
   1 C1            -0.0166     1.3733     0.0096 C.ar    
   2 C2             0.0021    -0.0041     0.0020 C.ar    
   3 C3             1.1757     2.0864     0.0020 C.ar    
   4 C4             2.3930     1.4131    -0.0136 C.ar    
   5 C5             2.4198     0.0356    -0.0217 C.ar    
   6 C6             1.2220    -0.6846    -0.0133 C.ar    
   7 C7             1.2460    -2.1604    -0.0214 C.2     
   8 O8             2.3086    -2.7511    -0.0355 O.2     
   9 C9             0.2328    -4.8181    -1.4623 C.3     
  10 C10            0.1137    -4.3179    -0.0213 C.3     
  11 N11            0.0899    -2.8532    -0.0132 N.am    
  12 C12           -1.1595    -4.8444     0.5895 C.ar    
  13 C13           -1.1214    -5.9435     1.4269 C.ar    
  14 C14           -2.3647    -4.2246     0.3168 C.ar    
  15 Cl15           3.8796     2.3094    -0.0236 Cl      
  16 C16           -2.2892    -6.4264     1.9871 C.ar    
  17 C17           -3.4951    -5.8099     1.7103 C.ar    
  18 C18           -3.5325    -4.7075     0.8771 C.ar    
  19 C19           -4.7683    -6.3366     2.3207 C.3     
  20 O20            1.1528     3.4435     0.0095 O.3     
  21 C21           -0.1311     4.0707     0.0251 C.3     
  22 H22           -0.9596     1.8997     0.0169 H       
  23 H23           -0.9254    -0.5573     0.0082 H       
  24 H24            3.3649    -0.4869    -0.0346 H       
  25 H25            1.1537    -4.4374    -1.9040 H       
  26 H26            0.2505    -5.9080    -1.4683 H       
  27 H27           -0.6208    -4.4654    -2.0411 H       
  28 H28            0.9673    -4.6707     0.5575 H       
  29 H29           -0.7579    -2.3819    -0.0020 H       
  30 H30           -0.1793    -6.4252     1.6432 H       
  31 H31           -2.3938    -3.3630    -0.3336 H       
  32 H32           -2.2596    -7.2856     2.6408 H       
  33 H33           -4.4746    -4.2258     0.6608 H       
  34 H34           -4.9440    -5.8436     3.2768 H       
  35 H35           -5.6033    -6.1357     1.6494 H       
  36 H36           -4.6786    -7.4116     2.4773 H       
  37 H37           -0.6915     3.7732    -0.8612 H       
  38 H38           -0.6746     3.7637     0.9187 H       
  39 H39           -0.0065     5.1535     0.0297 H       
@<TRIPOS>BOND
   1    1    2 ar
   2    1    3 ar
   3    1   22 1
   4    2    6 ar
   5    2   23 1
   6    3    4 ar
   7    3   20 1
   8    4    5 ar
   9    4   15 1
  10    5    6 ar
  11    5   24 1
  12    6    7 1
  13    7    8 2
  14    7   11 am
  15    9   10 1
  16    9   25 1
  17    9   26 1
  18    9   27 1
  19   10   12 1
  20   10   11 1
  21   10   28 1
  22   11   29 1
  23   12   13 ar
  24   12   14 ar
  25   13   16 ar
  26   13   30 1
  27   14   18 ar
  28   14   31 1
  29   16   17 ar
  30   16   32 1
  31   17   18 ar
  32   17   19 1
  33   18   33 1
  34   19   34 1
  35   19   35 1
  36   19   36 1
  37   20   21 1
  38   21   37 1
  39   21   38 1
  40   21   39 1

#	End of record

