#	Name: ASD08830168
#	Creating user name:	WinNT
#	Creation time:	15. 06. 2019 21:19

#	Modifying user name:	WinNT
#	Modification time:	15. 06. 2019 21:19

#	Program:	/corina/corina34_cracker 3.40 0067  02.08.2006

@<TRIPOS>MOLECULE
ASD08830168
  41   44    0    0    0
SMALL
NO_CHARGES


@<TRIPOS>ATOM
   1 C1            -0.0185     1.5138     0.0104 C.3     
   2 C2             0.0021    -0.0041     0.0020 C.2     
   3 C3             0.2362     0.1050     2.4777 C.ar    
   4 O4            -0.0306     1.4338     2.4272 O.3     
   5 C5             0.2721    -0.6669     1.2924 C.ar    
   6 C6            -0.7329     1.9504     1.2977 C.3     
   7 C7             0.5539    -2.0228     1.3338 C.ar    
   8 C8             0.8030    -2.6358     2.5699 C.ar    
   9 C9             0.7592    -1.8590     3.7572 C.ar    
  10 C10            0.4740    -0.4854     3.6857 C.ar    
  11 C11            1.0953    -4.0092     2.6533 C.ar    
  12 C12            1.3295    -4.5754     3.8685 C.ar    
  13 C13            1.2835    -3.8138     5.0347 C.ar    
  14 C14            1.0052    -2.4819     4.9930 C.ar    
  15 O15           -0.1937    -0.6391    -1.0127 O.2     
  16 C16            1.4127     2.0545    -0.0004 C.3     
  17 N17            2.0656     1.6868    -1.2639 N.3     
  18 C18            3.3512     2.3837    -1.4150 C.3     
  19 C19            1.1868     1.9605    -2.4102 C.3     
  20 C20            1.8808     1.5084    -3.6978 C.3     
  21 O21            3.1422     2.1726    -3.8120 O.3     
  22 C22            4.0235     1.9275    -2.7126 C.3     
  23 H23           -0.5611     1.8826    -0.8601 H       
  24 H24           -0.7552     3.0389     1.3500 H       
  25 H25           -1.7526     1.5651     1.2962 H       
  26 H26            0.5818    -2.6019     0.4226 H       
  27 H27            0.4411     0.1053     4.5893 H       
  28 H28            1.1334    -4.6113     1.7575 H       
  29 H29            1.5538    -5.6301     3.9300 H       
  30 H30            1.4719    -4.2878     5.9867 H       
  31 H31            0.9724    -1.9062     5.9062 H       
  32 H32            1.3917     3.1401     0.0952 H       
  33 H33            1.9689     1.6270     0.8339 H       
  34 H34            3.1797     3.4595    -1.4527 H       
  35 H35            3.9955     2.1467    -0.5684 H       
  36 H36            0.2511     1.4144    -2.2901 H       
  37 H37            0.9807     3.0295    -2.4638 H       
  38 H38            2.0386     0.4303    -3.6671 H       
  39 H39            1.2574     1.7613    -4.5554 H       
  40 H40            4.9497     2.4835    -2.8576 H       
  41 H41            4.2436     0.8616    -2.6532 H       
@<TRIPOS>BOND
   1    1    2 1
   2    1   16 1
   3    1    6 1
   4    1   23 1
   5    2    5 1
   6    2   15 2
   7    3    4 1
   8    3    5 ar
   9    3   10 ar
  10    4    6 1
  11    5    7 ar
  12    6   24 1
  13    6   25 1
  14    7    8 ar
  15    7   26 1
  16    8    9 ar
  17    8   11 ar
  18    9   10 ar
  19    9   14 ar
  20   10   27 1
  21   11   12 ar
  22   11   28 1
  23   12   13 ar
  24   12   29 1
  25   13   14 ar
  26   13   30 1
  27   14   31 1
  28   16   17 1
  29   16   32 1
  30   16   33 1
  31   17   18 1
  32   17   19 1
  33   18   22 1
  34   18   34 1
  35   18   35 1
  36   19   20 1
  37   19   36 1
  38   19   37 1
  39   20   21 1
  40   20   38 1
  41   20   39 1
  42   21   22 1
  43   22   40 1
  44   22   41 1

#	End of record

