#	Name: ASD09200002
#	Creating user name:	WinNT
#	Creation time:	15. 06. 2019 21:21

#	Modifying user name:	WinNT
#	Modification time:	15. 06. 2019 21:21

#	Program:	/corina/corina34_cracker 3.40 0067  02.08.2006

@<TRIPOS>MOLECULE
ASD09200002
  42   44    0    0    0
SMALL
NO_CHARGES


@<TRIPOS>ATOM
   1 C1            -0.0167     1.3802     0.0096 C.ar    
   2 C2             0.0021    -0.0041     0.0020 C.ar    
   3 C3             1.2060    -0.6845    -0.0131 C.ar    
   4 C4             2.3970     0.0132    -0.0207 C.ar    
   5 C5             2.3861     1.4067    -0.0131 C.ar    
   6 C6             1.1696     2.0893     0.0021 C.ar    
   7 Cl7           -1.5324     2.2266     0.0214 Cl      
   8 Cl8            1.1459     3.8251     0.0111 Cl      
   9 C9             3.6626     2.1610    -0.0207 C.ar    
  10 C10            4.5253     2.0955    -1.1128 C.ar    
  11 N11            5.6556     2.7827    -1.0829 N.ar    
  12 C12            5.9755     3.5276    -0.0344 C.ar    
  13 N13            5.1872     3.6201     1.0261 N.ar    
  14 C14            4.0320     2.9665     1.0724 C.ar    
  15 N15            3.2084     3.0712     2.1791 N.pl3   
  16 N16            7.1679     4.2289    -0.0477 N.3     
  17 C17            7.8996     3.9999    -1.3015 C.3     
  18 C18            9.1704     4.8527    -1.3104 C.3     
  19 N19            9.9999     4.5033    -0.1487 N.3     
  20 C20            9.2682     4.7323     1.1051 C.3     
  21 C21            7.9974     3.8795     1.1140 C.3     
  22 C22           10.1530     4.3423     2.2909 C.3     
  23 C23            9.9551     4.5859    -2.5965 C.3     
  24 H24           -0.9270    -0.5547     0.0083 H       
  25 H25            1.2143    -1.7645    -0.0186 H       
  26 H26            3.3361    -0.5202    -0.0322 H       
  27 H27            4.2748     1.4914    -1.9723 H       
  28 H28            2.3683     2.5870     2.2060 H       
  29 H29            3.4710     3.6288     2.9281 H       
  30 H30            8.1680     2.9463    -1.3786 H       
  31 H31            7.2693     4.2777    -2.1462 H       
  32 H32            8.9008     5.9076    -1.2607 H       
  33 H33           10.3238     3.5496    -0.2093 H       
  34 H34            8.9998     5.7859     1.1822 H       
  35 H35            7.4384     4.0695     2.0303 H       
  36 H36            8.2669     2.8245     1.0643 H       
  37 H37           11.0589     4.9485     2.2831 H       
  38 H38            9.6100     4.5123     3.2206 H       
  39 H39           10.4203     3.2885     2.2137 H       
  40 H40            9.3389     4.8433    -3.4581 H       
  41 H41           10.8601     5.1934    -2.6026 H       
  42 H42           10.2252     3.5310    -2.6452 H       
@<TRIPOS>BOND
   1    1    2 ar
   2    1    6 ar
   3    1    7 1
   4    2    3 ar
   5    2   24 1
   6    3    4 ar
   7    3   25 1
   8    4    5 ar
   9    4   26 1
  10    5    6 ar
  11    5    9 1
  12    6    8 1
  13    9   10 ar
  14    9   14 ar
  15   10   11 ar
  16   10   27 1
  17   11   12 ar
  18   12   13 ar
  19   12   16 1
  20   13   14 ar
  21   14   15 1
  22   15   28 1
  23   15   29 1
  24   16   17 1
  25   16   21 1
  26   17   18 1
  27   17   30 1
  28   17   31 1
  29   18   19 1
  30   18   23 1
  31   18   32 1
  32   19   20 1
  33   19   33 1
  34   20   21 1
  35   20   22 1
  36   20   34 1
  37   21   35 1
  38   21   36 1
  39   22   37 1
  40   22   38 1
  41   22   39 1
  42   23   40 1
  43   23   41 1
  44   23   42 1

#	End of record

