#	Name: ASD01911834
#	Creating user name:	WinNT
#	Creation time:	15. 06. 2019 19:58

#	Modifying user name:	WinNT
#	Modification time:	15. 06. 2019 19:58

#	Program:	/corina/corina34_cracker 3.40 0067  02.08.2006

@<TRIPOS>MOLECULE
ASD01911834
  39   41    0    0    0
SMALL
NO_CHARGES


@<TRIPOS>ATOM
   1 C1            -1.0606    -0.5020    -2.0827 C.ar    
   2 C2            -1.0562     0.0561    -0.8079 C.ar    
   3 C3            -1.0050     1.4363    -0.6770 C.ar    
   4 N4            -0.9615     2.2119    -1.7422 N.ar    
   5 C5            -0.9642     1.7151    -2.9635 C.ar    
   6 C6            -1.0133     0.3496    -3.1743 C.ar    
   7 O7            -1.1019    -0.7394     0.2929 O.3     
   8 C8            -1.1524    -2.0844     0.1064 C.ar    
   9 C9            -0.0018    -2.7818    -0.2362 C.ar    
  10 C10           -0.0516    -4.1494    -0.4262 C.ar    
  11 C11           -1.2460    -4.8275    -0.2759 C.ar    
  12 C12           -2.4003    -4.1351     0.0672 C.ar    
  13 C13           -2.3513    -2.7619     0.2637 C.ar    
  14 N14           -3.6094    -4.8214     0.2189 N.am    
  15 C15           -4.7717    -4.2167    -0.0972 C.2     
  16 C16           -6.0555    -4.9025     0.1605 C.ar    
  17 C17           -7.2609    -4.2790    -0.1656 C.ar    
  18 C18           -8.4562    -4.9241     0.0773 C.ar    
  19 C19           -8.4623    -6.1861     0.6434 C.ar    
  20 C20           -7.2701    -6.8109     0.9697 C.ar    
  21 C21           -6.0673    -6.1787     0.7259 C.ar    
  22 O22           -4.7642    -3.1074    -0.5943 O.2     
  23 Cl23          -7.2882    -8.3949     1.6798 Cl      
  24 C24           -0.9136     2.6484    -4.1457 C.3     
  25 H25           -1.0955    -1.5730    -2.2176 H       
  26 H26           -1.0012     1.8799     0.3077 H       
  27 H27           -1.0148    -0.0486    -4.1783 H       
  28 H28            0.9332    -2.2545    -0.3548 H       
  29 H29            0.8449    -4.6894    -0.6931 H       
  30 H30           -1.2822    -5.8964    -0.4257 H       
  31 H31           -3.2473    -2.2211     0.5305 H       
  32 H32           -3.6114    -5.7325     0.5515 H       
  33 H33           -7.2580    -3.2933    -0.6071 H       
  34 H34           -9.3893    -4.4422    -0.1748 H       
  35 H35           -9.4007    -6.6862     0.8321 H       
  36 H36           -5.1380    -6.6666     0.9806 H       
  37 H37            0.1254     2.8347    -4.4173 H       
  38 H38           -1.4339     2.1948    -4.9892 H       
  39 H39           -1.3958     3.5907    -3.8856 H       
@<TRIPOS>BOND
   1    1    2 ar
   2    1    6 ar
   3    1   25 1
   4    2    3 ar
   5    2    7 1
   6    3    4 ar
   7    3   26 1
   8    4    5 ar
   9    5    6 ar
  10    5   24 1
  11    6   27 1
  12    7    8 1
  13    8    9 ar
  14    8   13 ar
  15    9   10 ar
  16    9   28 1
  17   10   11 ar
  18   10   29 1
  19   11   12 ar
  20   11   30 1
  21   12   13 ar
  22   12   14 1
  23   13   31 1
  24   14   15 am
  25   14   32 1
  26   15   16 1
  27   15   22 2
  28   16   17 ar
  29   16   21 ar
  30   17   18 ar
  31   17   33 1
  32   18   19 ar
  33   18   34 1
  34   19   20 ar
  35   19   35 1
  36   20   21 ar
  37   20   23 1
  38   21   36 1
  39   24   37 1
  40   24   38 1
  41   24   39 1

#	End of record

