#	Name: ASD07931898
#	Creating user name:	WinNT
#	Creation time:	15. 06. 2019 21:13

#	Modifying user name:	WinNT
#	Modification time:	15. 06. 2019 21:13

#	Program:	/corina/corina34_cracker 3.40 0067  02.08.2006

@<TRIPOS>MOLECULE
ASD07931898
  41   42    0    0    0
SMALL
NO_CHARGES


@<TRIPOS>ATOM
   1 C1            -0.0187     1.5258     0.0104 C.3     
   2 C2             0.0021    -0.0041     0.0020 C.3     
   3 N3             0.6059    -0.4925     1.2489 N.3     
   4 C4             0.6428    -1.9607     1.2762 C.3     
   5 O5             0.4284    -2.0858     3.6882 O.3     
   6 C6             1.2768    -2.4307     2.5869 C.3     
   7 C7             1.4250    -3.9674     2.5756 C.3     
   8 C8             1.0641    -4.3441     4.0384 C.3     
   9 C9            -0.0120    -3.2767     4.3600 C.3     
  10 C10           -0.0873    -3.0413     5.8466 C.ar    
  11 C11           -1.0580    -3.6761     6.5987 C.ar    
  12 C12           -1.1270    -3.4601     7.9623 C.ar    
  13 C13           -0.2251    -2.6096     8.5739 C.ar    
  14 C14            0.7462    -1.9754     7.8220 C.ar    
  15 C15            0.8179    -2.1948     6.4590 C.ar    
  16 C16           -0.3010    -2.3733    10.0603 C.3     
  17 F17            0.4942    -3.3143    10.7233 F       
  18 F18            0.1600    -1.0850    10.3519 F       
  19 F19           -1.6276    -2.5013    10.4857 F       
  20 C20            2.6485    -1.7764     2.7637 C.3     
  21 O21            1.3220     2.0204     0.0003 O.3     
  22 H22           -0.5459     1.8868    -0.8726 H       
  23 H23           -0.5289     1.8773     0.9072 H       
  24 H24           -1.0175    -0.3808    -0.0798 H       
  25 H25            0.5883    -0.3548    -0.8473 H       
  26 H26            1.5284    -0.1051     1.3799 H       
  27 H27           -0.3723    -2.3511     1.2032 H       
  28 H28            1.2334    -2.3251     0.4357 H       
  29 H29            0.7238    -4.4196     1.8742 H       
  30 H30            2.4497    -4.2566     2.3421 H       
  31 H31            0.6483    -5.3502     4.0937 H       
  32 H32            1.9279    -4.2414     4.6951 H       
  33 H33           -0.9828    -3.5905     3.9763 H       
  34 H34           -1.7626    -4.3406     6.1209 H       
  35 H35           -1.8858    -3.9555     8.5498 H       
  36 H36            1.4506    -1.3107     8.2997 H       
  37 H37            1.5791    -1.7023     5.8721 H       
  38 H38            2.5352    -0.6923     2.7749 H       
  39 H39            3.0894    -2.1053     3.7047 H       
  40 H40            3.2981    -2.0653     1.9374 H       
  41 H41            1.3852     2.9853     0.0049 H       
@<TRIPOS>BOND
   1    1    2 1
   2    1   21 1
   3    1   22 1
   4    1   23 1
   5    2    3 1
   6    2   24 1
   7    2   25 1
   8    3    4 1
   9    3   26 1
  10    4    6 1
  11    4   27 1
  12    4   28 1
  13    5    6 1
  14    5    9 1
  15    6    7 1
  16    6   20 1
  17    7    8 1
  18    7   29 1
  19    7   30 1
  20    8    9 1
  21    8   31 1
  22    8   32 1
  23    9   10 1
  24    9   33 1
  25   10   11 ar
  26   10   15 ar
  27   11   12 ar
  28   11   34 1
  29   12   13 ar
  30   12   35 1
  31   13   14 ar
  32   13   16 1
  33   14   15 ar
  34   14   36 1
  35   15   37 1
  36   16   17 1
  37   16   18 1
  38   16   19 1
  39   20   38 1
  40   20   39 1
  41   20   40 1
  42   21   41 1

#	End of record

