#	Name: ASD01152025
#	Creating user name:	WinNT
#	Creation time:	15. 06. 2019 19:05

#	Modifying user name:	WinNT
#	Modification time:	15. 06. 2019 19:05

#	Program:	/corina/corina34_cracker 3.40 0067  02.08.2006

@<TRIPOS>MOLECULE
ASD01152025
  52   55    0    0    0
SMALL
NO_CHARGES


@<TRIPOS>ATOM
   1 N1            -0.0158     1.3132     0.0093 N.2     
   2 C2             0.0021    -0.0041     0.0020 C.2     
   3 N3             1.2893    -0.4365    -0.0126 N.pl3   
   4 C4             2.0984     0.7011    -0.0142 C.2     
   5 C5             1.2324     1.7874    -0.0001 C.2     
   6 S6            -1.4215    -1.0424     0.0106 S.3     
   7 C7            -2.7257     0.2126     0.0295 C.3     
   8 C8             3.5072     0.7397    -0.0266 C.2     
   9 O9             4.0870     1.8107    -0.0265 O.2     
  10 O10            4.2142    -0.4109    -0.0385 O.3     
  11 C11            5.6386    -0.2970    -0.0506 C.3     
  12 C12            6.2619    -1.6942    -0.0630 C.3     
  13 N13            1.5996     3.1280     0.0032 N.am    
  14 C14            0.6520     4.0862     0.0174 C.2     
  15 O15           -0.5239     3.7781     0.0274 O.2     
  16 C16            1.7421    -1.8297    -0.0244 C.3     
  17 C17            1.0423     5.5111     0.0209 C.ar    
  18 C18            0.0628     6.5062     0.0357 C.ar    
  19 C19            0.4333     7.8344     0.0388 C.ar    
  20 C20            1.7740     8.1823     0.0274 C.ar    
  21 C21            2.7503     7.1997     0.0127 C.ar    
  22 C22            2.3922     5.8681     0.0152 C.ar    
  23 Cl23           2.2327     9.8566     0.0308 Cl      
  24 C24            1.8844    -2.2997    -1.4492 C.ar    
  25 C25            3.0885    -2.1444    -2.1095 C.ar    
  26 C26            3.2239    -2.5736    -3.4170 C.ar    
  27 C27            2.1517    -3.1605    -4.0684 C.ar    
  28 C28            0.9381    -3.3174    -3.4027 C.ar    
  29 C29            0.8115    -2.8903    -2.0912 C.ar    
  30 O30            2.0234    -3.6593    -5.3325 O.3     
  31 C31            0.8485    -4.4911    -5.3002 C.3     
  32 O32            0.0499    -3.9144    -4.2499 O.3     
  33 H33           -2.6398     0.8392    -0.8583 H       
  34 H34           -3.7000    -0.2761     0.0364 H       
  35 H35           -2.6226     0.8303     0.9216 H       
  36 H36            5.9519     0.2485    -0.9408 H       
  37 H37            5.9678     0.2398     0.8391 H       
  38 H38            5.9486    -2.2397     0.8271 H       
  39 H39            5.9328    -2.2310    -0.9528 H       
  40 H40            7.3484    -1.6073    -0.0723 H       
  41 H41            2.5379     3.3738    -0.0048 H       
  42 H42            2.7054    -1.9030     0.4803 H       
  43 H43            1.0127    -2.4532     0.4927 H       
  44 H44           -0.9829     6.2361     0.0442 H       
  45 H45           -0.3233     8.6049     0.0498 H       
  46 H46            3.7940     7.4772     0.0038 H       
  47 H47            3.1543     5.1029     0.0042 H       
  48 H48            3.9255    -1.6866    -1.6033 H       
  49 H49            4.1660    -2.4507    -3.9307 H       
  50 H50           -0.1281    -3.0111    -1.5726 H       
  51 H51            0.3202    -4.4447    -6.2524 H       
  52 H52            1.1142    -5.5201    -5.0582 H       
@<TRIPOS>BOND
   1    1    2 2
   2    1    5 1
   3    2    3 1
   4    2    6 1
   5    3    4 1
   6    3   16 1
   7    4    5 2
   8    4    8 1
   9    5   13 1
  10    6    7 1
  11    7   33 1
  12    7   34 1
  13    7   35 1
  14    8    9 2
  15    8   10 1
  16   10   11 1
  17   11   12 1
  18   11   36 1
  19   11   37 1
  20   12   38 1
  21   12   39 1
  22   12   40 1
  23   13   14 am
  24   13   41 1
  25   14   15 2
  26   14   17 1
  27   16   24 1
  28   16   42 1
  29   16   43 1
  30   17   18 ar
  31   17   22 ar
  32   18   19 ar
  33   18   44 1
  34   19   20 ar
  35   19   45 1
  36   20   21 ar
  37   20   23 1
  38   21   22 ar
  39   21   46 1
  40   22   47 1
  41   24   25 ar
  42   24   29 ar
  43   25   26 ar
  44   25   48 1
  45   26   27 ar
  46   26   49 1
  47   27   28 ar
  48   27   30 1
  49   28   29 ar
  50   28   32 1
  51   29   50 1
  52   30   31 1
  53   31   32 1
  54   31   51 1
  55   31   52 1

#	End of record

