#	Name: ASD03731182
#	Creating user name:	WinNT
#	Creation time:	15. 06. 2019 20:45

#	Modifying user name:	WinNT
#	Modification time:	15. 06. 2019 20:45

#	Program:	/corina/corina34_cracker 3.40 0067  02.08.2006

@<TRIPOS>MOLECULE
ASD03731182
  69   74    0    0    0
SMALL
NO_CHARGES


@<TRIPOS>ATOM
   1 N1            -0.0162     1.3436     0.0094 N.am    
   2 C2             0.0021    -0.0041     0.0020 C.2     
   3 O3             1.0631    -0.5976    -0.0113 O.2     
   4 N4            -1.1558    -0.6938     0.0094 N.am    
   5 C5            -1.1360    -2.1586     0.0013 C.3     
   6 C6            -2.5498    -2.6802     0.0120 C.ar    
   7 C7            -3.2078    -2.9124    -1.1812 C.ar    
   8 C8            -4.5089    -3.3919    -1.1757 C.ar    
   9 C9            -5.1511    -3.6395     0.0317 C.ar    
  10 C10           -4.4858    -3.4052     1.2292 C.ar    
  11 C11           -3.1830    -2.9306     1.2150 C.ar    
  12 O12           -5.1101    -3.6456     2.4133 O.3     
  13 C13           -4.3657    -3.3821     3.6043 C.3     
  14 O14           -6.4282    -4.1097     0.0414 O.3     
  15 C15           -6.5972    -5.5287     0.0349 C.3     
  16 O16           -5.1559    -3.6191    -2.3502 O.3     
  17 C17           -4.4347    -3.3419    -3.5523 C.3     
  18 C18            1.2424     2.0932     0.0014 C.3     
  19 C19            0.9425     3.5935     0.0124 C.3     
  20 O20            7.6135     2.0776    -2.1992 O.3     
  21 C21            8.9864     2.4295    -2.4527 C.3     
  22 O22            8.9067     3.7735    -2.9629 O.3     
  23 C23            7.7690     4.3025    -2.4238 C.ar    
  24 C24            6.9737     3.2591    -1.9553 C.ar    
  25 C25            7.3411     5.6114    -2.2918 C.ar    
  26 C26            6.1170     5.8961    -1.6943 C.ar    
  27 C27            5.3276     4.8450    -1.2377 C.ar    
  28 C28            5.7542     3.5392    -1.3622 C.ar    
  29 O29            5.5236     7.1003    -1.4533 O.3     
  30 C30            4.0742     5.4619    -0.6771 C.3     
  31 C31            4.1170     6.8980    -1.2168 C.3     
  32 N32            2.2011     4.3432     0.0044 N.am    
  33 C33            2.8367     4.7347    -1.1181 C.2     
  34 C34            4.0424     5.4282     0.8221 C.ar    
  35 C35            4.8782     5.9144     1.8026 C.ar    
  36 C36            4.5685     5.7189     3.1367 C.ar    
  37 C37            3.4181     5.0336     3.4830 C.ar    
  38 C38            2.5784     4.5438     2.5046 C.ar    
  39 C39            2.8820     4.7363     1.1591 C.ar    
  40 O40            2.4789     4.5384    -2.2602 O.2     
  41 H41           -0.8627     1.8171     0.0160 H       
  42 H42           -2.0023    -0.2203     0.0200 H       
  43 H43           -0.6258    -2.5101    -0.8955 H       
  44 H44           -0.6088    -2.5197     0.8844 H       
  45 H45           -2.7081    -2.7197    -2.1190 H       
  46 H46           -2.6637    -2.7524     2.1450 H       
  47 H47           -4.9786    -3.6155     4.4749 H       
  48 H48           -3.4679    -4.0001     3.6158 H       
  49 H49           -4.0828    -2.3298     3.6307 H       
  50 H50           -6.1385    -5.9451    -0.8620 H       
  51 H51           -6.1213    -5.9553     0.9179 H       
  52 H52           -7.6605    -5.7680     0.0438 H       
  53 H53           -4.1526    -2.2893    -3.5722 H       
  54 H54           -3.5371    -3.9594    -3.5881 H       
  55 H55           -5.0642    -3.5657    -4.4135 H       
  56 H56            1.8260     1.8329     0.8845 H       
  57 H57            1.8090     1.8425    -0.8954 H       
  58 H58            0.3589     3.8538    -0.8707 H       
  59 H59            0.3759     3.8443     0.9091 H       
  60 H60            9.5650     2.4041    -1.5293 H       
  61 H61            9.4216     1.7625    -3.1969 H       
  62 H62            7.9611     6.4176    -2.6550 H       
  63 H63            5.1354     2.7332    -0.9965 H       
  64 H64            3.7442     7.6023    -0.4731 H       
  65 H65            3.5525     6.9794    -2.1457 H       
  66 H66            5.7760     6.4491     1.5299 H       
  67 H67            5.2233     6.1009     3.9060 H       
  68 H68            3.1765     4.8809     4.5245 H       
  69 H69            1.6822     4.0092     2.7829 H       
@<TRIPOS>BOND
   1    1    2 am
   2    1   18 1
   3    1   41 1
   4    2    3 2
   5    2    4 am
   6    4    5 1
   7    4   42 1
   8    5    6 1
   9    5   43 1
  10    5   44 1
  11    6    7 ar
  12    6   11 ar
  13    7    8 ar
  14    7   45 1
  15    8    9 ar
  16    8   16 1
  17    9   10 ar
  18    9   14 1
  19   10   11 ar
  20   10   12 1
  21   11   46 1
  22   12   13 1
  23   13   47 1
  24   13   48 1
  25   13   49 1
  26   14   15 1
  27   15   50 1
  28   15   51 1
  29   15   52 1
  30   16   17 1
  31   17   53 1
  32   17   54 1
  33   17   55 1
  34   18   19 1
  35   18   56 1
  36   18   57 1
  37   19   32 1
  38   19   58 1
  39   19   59 1
  40   20   21 1
  41   20   24 1
  42   21   22 1
  43   21   60 1
  44   21   61 1
  45   22   23 1
  46   23   24 ar
  47   23   25 ar
  48   24   28 ar
  49   25   26 ar
  50   25   62 1
  51   26   27 ar
  52   26   29 1
  53   27   28 ar
  54   27   30 1
  55   28   63 1
  56   29   31 1
  57   30   31 1
  58   30   33 1
  59   30   34 1
  60   31   64 1
  61   31   65 1
  62   32   33 am
  63   32   39 1
  64   33   40 2
  65   34   35 ar
  66   34   39 ar
  67   35   36 ar
  68   35   66 1
  69   36   37 ar
  70   36   67 1
  71   37   38 ar
  72   37   68 1
  73   38   39 ar
  74   38   69 1

#	End of record

