#	Name: ASD01180279
#	Creating user name:	WinNT
#	Creation time:	15. 06. 2019 19:07

#	Modifying user name:	WinNT
#	Modification time:	15. 06. 2019 19:07

#	Program:	/corina/corina34_cracker 3.40 0067  02.08.2006

@<TRIPOS>MOLECULE
ASD01180279
  61   64    0    0    0
SMALL
NO_CHARGES


@<TRIPOS>ATOM
   1 C1            -0.0184     1.5028     0.0103 C.2     
   2 C2             0.0021    -0.0041     0.0020 C.3     
   3 C3             1.4513    -0.4944    -0.0145 C.3     
   4 O4             1.0291     2.1267     0.0037 O.co2   
   5 O5            -1.0824     2.0980     0.0186 O.co2   
   6 C6             2.6473    -2.6171    -0.0373 C.2     
   7 C7             2.6673    -4.0924    -0.0454 C.ar    
   8 C8             3.8864    -4.7877    -0.0608 C.ar    
   9 C9             3.8577    -6.1559    -0.0679 C.ar    
  10 C10            2.6289    -6.8141    -0.0597 C.ar    
  11 N11            1.4912    -6.1331    -0.0456 N.ar    
  12 C12            1.4744    -4.8165    -0.0321 C.ar    
  13 O13            3.6920    -1.9949    -0.0439 O.2     
  14 N14            1.4712    -1.9592    -0.0225 N.am    
  15 N15            2.5959    -8.1983    -0.0669 N.pl3   
  16 C16            3.8430    -8.9612     0.0277 C.3     
  17 C17            4.7428    -9.7165     4.1386 C.ar    
  18 C18            3.9701   -10.6219     3.4141 C.ar    
  19 C19            3.6829   -10.3732     2.0873 C.ar    
  20 C20            4.1603    -9.2275     1.4766 C.ar    
  21 C21            4.9282    -8.3256     2.1909 C.ar    
  22 C22            5.2215    -8.5642     3.5182 C.ar    
  23 C23            5.0498    -9.9755     5.5670 C.ar    
  24 C24            5.8226    -9.0697     6.2910 C.ar    
  25 C25            6.1057    -9.3144     7.6190 C.ar    
  26 C26            5.6231   -10.4590     8.2327 C.ar    
  27 C27            4.8547   -11.3625     7.5165 C.ar    
  28 C28            4.5613   -11.1223     6.1899 C.ar    
  29 F29            5.9030   -10.6951     9.5332 F       
  30 C30            1.3139    -8.8999    -0.1691 C.3     
  31 C31            0.4102    -8.5220     1.0176 C.3     
  32 C32           -0.8508    -7.8647     0.4194 C.3     
  33 C33           -0.9192    -8.4193    -1.0252 C.3     
  34 C34            0.5706    -8.4591    -1.4470 C.3     
  35 H35           -0.4983    -0.3791     0.8948 H       
  36 H36           -0.5153    -0.3696    -0.8850 H       
  37 H37            1.9516    -0.1193    -0.9073 H       
  38 H38            1.9686    -0.1289     0.8726 H       
  39 H39            4.8259    -4.2550    -0.0672 H       
  40 H40            4.7783    -6.7204    -0.0801 H       
  41 H41            0.5300    -4.2929    -0.0154 H       
  42 H42            0.6378    -2.4556    -0.0172 H       
  43 H43            3.7303    -9.9085    -0.4996 H       
  44 H44            4.6540    -8.3889    -0.4226 H       
  45 H45            3.5969   -11.5167     3.8899 H       
  46 H46            3.0844   -11.0744     1.5247 H       
  47 H47            5.2987    -7.4328     1.7091 H       
  48 H48            5.8206    -7.8590     4.0752 H       
  49 H49            6.1998    -8.1776     5.8132 H       
  50 H50            6.7046    -8.6130     8.1808 H       
  51 H51            4.4811   -12.2538     7.9986 H       
  52 H52            3.9582   -11.8246     5.6336 H       
  53 H53            1.4785    -9.9773    -0.1848 H       
  54 H54            0.1354    -9.4160     1.5773 H       
  55 H55            0.9254    -7.8165     1.6695 H       
  56 H56           -1.7371    -8.1570     0.9826 H       
  57 H57           -0.7461    -6.7798     0.4070 H       
  58 H58           -1.3503    -9.4204    -1.0347 H       
  59 H59           -1.4855    -7.7476    -1.6704 H       
  60 H60            0.9048    -7.4702    -1.7608 H       
  61 H61            0.7217    -9.1852    -2.2458 H       
@<TRIPOS>BOND
   1    1    2 1
   2    1    4 ar
   3    1    5 ar
   4    2    3 1
   5    2   35 1
   6    2   36 1
   7    3   14 1
   8    3   37 1
   9    3   38 1
  10    6    7 1
  11    6   13 2
  12    6   14 am
  13    7    8 ar
  14    7   12 ar
  15    8    9 ar
  16    8   39 1
  17    9   10 ar
  18    9   40 1
  19   10   11 ar
  20   10   15 1
  21   11   12 ar
  22   12   41 1
  23   14   42 1
  24   15   16 1
  25   15   30 1
  26   16   20 1
  27   16   43 1
  28   16   44 1
  29   17   18 ar
  30   17   22 ar
  31   17   23 1
  32   18   19 ar
  33   18   45 1
  34   19   20 ar
  35   19   46 1
  36   20   21 ar
  37   21   22 ar
  38   21   47 1
  39   22   48 1
  40   23   24 ar
  41   23   28 ar
  42   24   25 ar
  43   24   49 1
  44   25   26 ar
  45   25   50 1
  46   26   27 ar
  47   26   29 1
  48   27   28 ar
  49   27   51 1
  50   28   52 1
  51   30   31 1
  52   30   34 1
  53   30   53 1
  54   31   32 1
  55   31   54 1
  56   31   55 1
  57   32   33 1
  58   32   56 1
  59   32   57 1
  60   33   34 1
  61   33   58 1
  62   33   59 1
  63   34   60 1
  64   34   61 1

#	End of record

