#	Name: ASD01916446
#	Creating user name:	WinNT
#	Creation time:	15. 06. 2019 20:07

#	Modifying user name:	WinNT
#	Modification time:	15. 06. 2019 20:07

#	Program:	/corina/corina34_cracker 3.40 0067  02.08.2006

@<TRIPOS>MOLECULE
ASD01916446
  37   38    0    0    0
SMALL
NO_CHARGES


@<TRIPOS>ATOM
   1 C1            -0.0167     1.3795     0.0096 C.ar    
   2 C2             0.0021    -0.0041     0.0020 C.ar    
   3 C3             1.2096    -0.6788    -0.0131 C.ar    
   4 C4             2.3967     0.0294    -0.0207 C.ar    
   5 C5             2.3773     1.4115    -0.0126 C.ar    
   6 C6             1.1707     2.0864     0.0021 C.ar    
   7 S7            -1.5543     2.2399     0.0216 S.o2    
   8 O8            -2.3404     1.6426     1.0436 O.2     
   9 O9            -1.2392     3.6252    -0.0071 O.2     
  10 N10           -2.3153     1.9036    -1.4103 N.am    
  11 C11           -2.7450     0.5350    -1.7077 C.3     
  12 C12           -3.7284     0.5525    -2.8797 C.3     
  13 C13           -4.1601    -0.8226    -3.1785 C.1     
  14 C14           -4.5044    -1.9194    -3.4169 C.1     
  15 C15           -4.9244    -3.2572    -3.7076 C.ar    
  16 C16           -5.8278    -3.4891    -4.7455 C.ar    
  17 C17           -6.2239    -4.7873    -5.0139 C.ar    
  18 C18           -5.7043    -5.8131    -4.2363 C.ar    
  19 C19           -4.8128    -5.5123    -3.2232 C.ar    
  20 N20           -4.4470    -4.2682    -2.9909 N.ar    
  21 C21           -4.2472    -6.6235    -2.3768 C.3     
  22 F22           -3.0678    -7.0995    -2.9595 F       
  23 Cl23          -1.4892    -0.8928     0.0121 Cl      
  24 H24            1.2249    -1.7587    -0.0187 H       
  25 H25            3.3395    -0.4972    -0.0325 H       
  26 H26            3.3051     1.9644    -0.0178 H       
  27 H27            1.1562     3.1663     0.0080 H       
  28 H28           -2.4765     2.6129    -2.0521 H       
  29 H29           -1.8768    -0.0693    -1.9709 H       
  30 H30           -3.2322     0.1085    -0.8309 H       
  31 H31           -4.5965     1.1568    -2.6165 H       
  32 H32           -3.2412     0.9790    -3.7565 H       
  33 H33           -6.2126    -2.6670    -5.3306 H       
  34 H34           -6.9220    -4.9978    -5.8106 H       
  35 H35           -5.9942    -6.8370    -4.4207 H       
  36 H36           -4.0318    -6.2453    -1.3774 H       
  37 H37           -4.9725    -7.4344    -2.3099 H       
@<TRIPOS>BOND
   1    1    2 ar
   2    1    6 ar
   3    1    7 1
   4    2    3 ar
   5    2   23 1
   6    3    4 ar
   7    3   24 1
   8    4    5 ar
   9    4   25 1
  10    5    6 ar
  11    5   26 1
  12    6   27 1
  13    7    8 2
  14    7    9 2
  15    7   10 am
  16   10   11 1
  17   10   28 1
  18   11   12 1
  19   11   29 1
  20   11   30 1
  21   12   13 1
  22   12   31 1
  23   12   32 1
  24   13   14 3
  25   14   15 1
  26   15   16 ar
  27   15   20 ar
  28   16   17 ar
  29   16   33 1
  30   17   18 ar
  31   17   34 1
  32   18   19 ar
  33   18   35 1
  34   19   20 ar
  35   19   21 1
  36   21   22 1
  37   21   36 1
  38   21   37 1

#	End of record

