#	Name: ASD02030424
#	Creating user name:	WinNT
#	Creation time:	15. 06. 2019 20:15

#	Modifying user name:	WinNT
#	Modification time:	15. 06. 2019 20:15

#	Program:	/corina/corina34_cracker 3.40 0067  02.08.2006

@<TRIPOS>MOLECULE
ASD02030424
  21   22    0    0    0
SMALL
NO_CHARGES


@<TRIPOS>ATOM
   1 O1            -0.0174     1.4293     0.0099 O.3     
   2 C2             0.0021    -0.0041     0.0020 C.3     
   3 C3             1.3600     0.0520     0.7127 C.3     
   4 C4             1.4159     1.4068    -0.0039 C.3     
   5 O5             1.2820     0.1361     2.1371 O.3     
   6 C6             2.3657    -0.9578     0.2229 C.ar    
   7 C7             3.3234    -1.4546     1.0872 C.ar    
   8 C8             4.2459    -2.3815     0.6378 C.ar    
   9 C9             4.2100    -2.8114    -0.6763 C.ar    
  10 C10            3.2523    -2.3144    -1.5399 C.ar    
  11 C11            2.3268    -1.3915    -1.0889 C.ar    
  12 I12            5.6979    -3.1341     1.9471 I       
  13 H13           -0.7857    -0.4509     0.6086 H       
  14 H14            0.0552    -0.4306    -0.9996 H       
  15 H15            1.8381     1.3486    -1.0071 H       
  16 H16            1.8669     2.1962     0.5974 H       
  17 H17            0.6907     0.8305     2.4583 H       
  18 H18            3.3514    -1.1185     2.1132 H       
  19 H19            4.9306    -3.5351    -1.0277 H       
  20 H20            3.2245    -2.6497    -2.5661 H       
  21 H21            1.5757    -1.0066    -1.7627 H       
@<TRIPOS>BOND
   1    1    2 1
   2    1    4 1
   3    2    3 1
   4    2   13 1
   5    2   14 1
   6    3    4 1
   7    3    5 1
   8    3    6 1
   9    4   15 1
  10    4   16 1
  11    5   17 1
  12    6    7 ar
  13    6   11 ar
  14    7    8 ar
  15    7   18 1
  16    8    9 ar
  17    8   12 1
  18    9   10 ar
  19    9   19 1
  20   10   11 ar
  21   10   20 1
  22   11   21 1

#	End of record

