#	Name: ASD01420058
#	Creating user name:	WinNT
#	Creation time:	15. 06. 2019 19:20

#	Modifying user name:	WinNT
#	Modification time:	15. 06. 2019 19:20

#	Program:	/corina/corina34_cracker 3.40 0067  02.08.2006

@<TRIPOS>MOLECULE
ASD01420058
  32   34    0    0    0
SMALL
NO_CHARGES


@<TRIPOS>ATOM
   1 C1            -0.0144     1.2120     0.0087 C.2     
   2 O2             0.1212     0.0704     0.4056 O.2     
   3 C3             1.1508     2.1104    -0.0624 C.ar    
   4 C4             2.0758     2.1493     0.9922 C.ar    
   5 C5             3.1680     2.9959     0.9171 C.ar    
   6 C6             3.3460     3.8024    -0.1976 C.ar    
   7 C7             2.4298     3.7648    -1.2441 C.ar    
   8 C8             1.3428     2.9235    -1.1835 C.ar    
   9 O9             4.4181     4.6316    -0.2675 O.3     
  10 O10            1.8997     1.3603     2.0816 O.3     
  11 C11           -2.4573     0.8571    -0.4685 C.3     
  12 N12           -1.2298     1.6534    -0.3714 N.am    
  13 C13           -1.5779     3.0220    -0.7664 C.3     
  14 C14           -3.0467     3.0413    -1.1067 C.ar    
  15 C15           -3.8707     4.0692    -1.5324 C.ar    
  16 C16           -5.2076     3.8271    -1.7823 C.ar    
  17 C17           -5.7237     2.5564    -1.6075 C.ar    
  18 C18           -4.9019     1.5303    -1.1831 C.ar    
  19 C19           -3.5621     1.7724    -0.9321 C.ar    
  20 H20            3.8820     3.0291     1.7268 H       
  21 H21            2.5744     4.3956    -2.1087 H       
  22 H22            0.6362     2.8940    -1.9997 H       
  23 H23            5.1984     4.2321    -0.6757 H       
  24 H24            2.3178     0.4913     2.0096 H       
  25 H25           -2.3186     0.0510    -1.1890 H       
  26 H26           -2.7067     0.4421     0.5081 H       
  27 H27           -1.3809     3.7061     0.0590 H       
  28 H28           -0.9928     3.3150    -1.6381 H       
  29 H29           -3.4678     5.0618    -1.6691 H       
  30 H30           -5.8494     4.6300    -2.1137 H       
  31 H31           -6.7689     2.3662    -1.8022 H       
  32 H32           -5.3054     0.5379    -1.0463 H       
@<TRIPOS>BOND
   1    1    2 2
   2    1    3 1
   3    1   12 am
   4    3    4 ar
   5    3    8 ar
   6    4    5 ar
   7    4   10 1
   8    5    6 ar
   9    5   20 1
  10    6    7 ar
  11    6    9 1
  12    7    8 ar
  13    7   21 1
  14    8   22 1
  15    9   23 1
  16   10   24 1
  17   11   12 1
  18   11   19 1
  19   11   25 1
  20   11   26 1
  21   12   13 1
  22   13   14 1
  23   13   27 1
  24   13   28 1
  25   14   15 ar
  26   14   19 ar
  27   15   16 ar
  28   15   29 1
  29   16   17 ar
  30   16   30 1
  31   17   18 ar
  32   17   31 1
  33   18   19 ar
  34   18   32 1

#	End of record

