#	Name: ASD01870470
#	Creating user name:	WinNT
#	Creation time:	15. 06. 2019 19:39

#	Modifying user name:	WinNT
#	Modification time:	15. 06. 2019 19:39

#	Program:	/corina/corina34_cracker 3.40 0067  02.08.2006

@<TRIPOS>MOLECULE
ASD01870470
  41   44    0    0    0
SMALL
NO_CHARGES


@<TRIPOS>ATOM
   1 C1            -0.0304     1.3967    -0.2323 C.ar    
   2 C2            -0.0275     0.0163    -0.1052 C.ar    
   3 C3             1.1515    -0.6624     0.1394 C.ar    
   4 C4             2.3474     0.0279     0.2615 C.ar    
   5 C5             2.3599     1.4078     0.1368 C.ar    
   6 C6             1.1575     2.0999    -0.1131 C.ar    
   7 C7             3.4145     2.4412     0.2056 C.2     
   8 N8             2.8483     3.6453     0.0073 N.am    
   9 C9             1.5223     3.5304    -0.1879 C.2     
  10 O10            0.7535     4.4484    -0.3908 O.2     
  11 O11            4.5945     2.2374     0.4079 O.2     
  12 C12            3.5488     4.8614     0.0052 C.ar    
  13 C13            4.0795     5.3547    -1.1790 C.ar    
  14 C14            4.7682     6.5511    -1.1816 C.ar    
  15 C15            4.9305     7.2620     0.0007 C.ar    
  16 C16            4.4000     6.7692     1.1855 C.ar    
  17 C17            3.7062     5.5744     1.1871 C.ar    
  18 Cl18           3.0365     4.9613     2.6667 Cl      
  19 N19            5.6294     8.4751    -0.0023 N.am    
  20 C20            6.4006     8.8111     1.0507 C.2     
  21 C21            7.2157    10.0365     1.0051 C.2     
  22 O22            6.4233     8.1019     2.0388 O.2     
  23 C23            8.0437    10.5100     1.9854 C.2     
  24 N24            8.6043    11.6551     1.5517 N.pl3   
  25 C25            8.1620    11.9525     0.2956 C.2     
  26 C26            7.3086    10.9928    -0.1034 C.2     
  27 C27            8.2869     9.8610     3.3236 C.3     
  28 H28           -0.9539     1.9213    -0.4279 H       
  29 H29           -0.9530    -0.5327    -0.1977 H       
  30 H30            1.1409    -1.7380     0.2364 H       
  31 H31            3.2655    -0.5076     0.4533 H       
  32 H32            3.9538     4.8021    -2.0983 H       
  33 H33            5.1811     6.9343    -2.1030 H       
  34 H34            4.5262     7.3218     2.1048 H       
  35 H35            5.5586     9.0738    -0.7622 H       
  36 H36            9.2324    12.1920     2.0598 H       
  37 H37            8.4533    12.8153    -0.2851 H       
  38 H38            6.7921    10.9384    -1.0503 H       
  39 H39            9.1262     9.1700     3.2450 H       
  40 H40            8.5159    10.6282     4.0632 H       
  41 H41            7.3946     9.3154     3.6303 H       
@<TRIPOS>BOND
   1    1    2 ar
   2    1    6 ar
   3    1   28 1
   4    2    3 ar
   5    2   29 1
   6    3    4 ar
   7    3   30 1
   8    4    5 ar
   9    4   31 1
  10    5    7 1
  11    5    6 ar
  12    6    9 1
  13    7    8 am
  14    7   11 2
  15    8    9 am
  16    8   12 1
  17    9   10 2
  18   12   13 ar
  19   12   17 ar
  20   13   14 ar
  21   13   32 1
  22   14   15 ar
  23   14   33 1
  24   15   16 ar
  25   15   19 1
  26   16   17 ar
  27   16   34 1
  28   17   18 1
  29   19   20 am
  30   19   35 1
  31   20   21 1
  32   20   22 2
  33   21   23 2
  34   21   26 1
  35   23   24 1
  36   23   27 1
  37   24   25 1
  38   24   36 1
  39   25   26 2
  40   25   37 1
  41   26   38 1
  42   27   39 1
  43   27   40 1
  44   27   41 1

#	End of record

