#	Name: ASD04590415
#	Creating user name:	WinNT
#	Creation time:	15. 06. 2019 20:50

#	Modifying user name:	WinNT
#	Modification time:	15. 06. 2019 20:50

#	Program:	/corina/corina34_cracker 3.40 0067  02.08.2006

@<TRIPOS>MOLECULE
ASD04590415
  63   67    0    0    0
SMALL
NO_CHARGES


@<TRIPOS>ATOM
   1 C1            -0.0169     1.3966     0.0097 C.ar    
   2 C2             0.0021    -0.0041     0.0020 C.ar    
   3 C3             2.4090     0.0323    -0.0204 C.ar    
   4 C4             2.3706     1.4400    -0.0129 C.ar    
   5 C5             1.1501     2.1048     0.0024 C.ar    
   6 N6             3.7153    -0.3328    -0.0357 N.2     
   7 C7             4.4702     0.7387    -0.0381 C.2     
   8 N8             3.6840     1.8602    -0.0243 N.pl3   
   9 C9             5.9476     0.7371    -0.0529 C.2     
  10 C10            6.7775    -0.4078    -0.0672 C.2     
  11 C11            8.0652     0.0153    -0.0779 C.2     
  12 N12            8.0572     1.3743    -0.0706 N.pl3   
  13 N13            6.7240     1.8029    -0.0608 N.2     
  14 N14            6.3450    -1.7438    -0.0693 N.am    
  15 C15            7.2479    -2.7443    -0.0837 C.2     
  16 O16            8.4371    -2.4901    -0.0949 O.2     
  17 C17            6.7936    -4.1479    -0.0858 C.ar    
  18 C18            1.2143    -0.6876    -0.0128 C.ar    
  19 C19            6.1639    -6.1381     1.1112 C.ar    
  20 C20            5.9395    -6.7863    -0.0898 C.ar    
  21 C21            6.1441    -6.1281    -1.2889 C.ar    
  22 C22            6.5697    -4.8131    -1.2961 C.ar    
  23 C23            6.5896    -4.8232     1.1224 C.ar    
  24 F24            6.8087    -4.1920     2.2967 F       
  25 F25            6.7686    -4.1718    -2.4685 F       
  26 C26           -1.2679    -0.7576     0.0101 C.2     
  27 N27           -2.4430    -0.0977     0.0250 N.am    
  28 O28           -1.2535    -1.9733     0.0035 O.2     
  29 C29           -3.7029    -0.8452     0.0330 C.3     
  30 C30           -4.8774     0.1351     0.0495 C.3     
  31 C31           -6.1932    -0.6457     0.0580 C.3     
  32 N32           -7.3210     0.2956     0.0738 N.3     
  33 C33           -8.5933    -0.4030    -0.1560 C.3     
  34 C34           -9.7472     0.5971    -0.0530 C.3     
  35 N35           -9.5526     1.6689    -1.0394 N.3     
  36 C36           -8.2803     2.3675    -0.8096 C.3     
  37 C37           -7.1263     1.3674    -0.9126 C.3     
  38 H38           -0.9616     1.9200     0.0170 H       
  39 H39            1.1250     3.1845     0.0081 H       
  40 H40            3.9936     2.7795    -0.0229 H       
  41 H41            8.9418    -0.6154    -0.0900 H       
  42 H42            8.8394     1.9479    -0.0754 H       
  43 H43            5.3965    -1.9466    -0.0603 H       
  44 H44            1.2298    -1.7674    -0.0180 H       
  45 H45            6.0013    -6.6594     2.0430 H       
  46 H46            5.6069    -7.8138    -0.0914 H       
  47 H47            5.9668    -6.6418    -2.2222 H       
  48 H48           -2.4545     0.8722     0.0303 H       
  49 H49           -3.7617    -1.4677    -0.8598 H       
  50 H50           -3.7446    -1.4773     0.9201 H       
  51 H51           -4.8186     0.7576     0.9424 H       
  52 H52           -4.8357     0.7671    -0.8375 H       
  53 H53           -6.2521    -1.2682    -0.8348 H       
  54 H54           -6.2350    -1.2777     0.9450 H       
  55 H55           -8.5879    -0.8510    -1.1497 H       
  56 H56           -8.7203    -1.1834     0.5944 H       
  57 H57          -10.6896     0.0867    -0.2517 H       
  58 H58           -9.7693     1.0249     0.9493 H       
  59 H59           -9.6020     1.3078    -1.9803 H       
  60 H60           -8.1532     3.1479    -1.5599 H       
  61 H61           -8.2857     2.8154     0.1841 H       
  62 H62           -6.1839     1.8777    -0.7138 H       
  63 H63           -7.1043     0.9395    -1.9149 H       
@<TRIPOS>BOND
   1    1    2 ar
   2    1    5 ar
   3    1   38 1
   4    2   18 ar
   5    2   26 1
   6    3    4 ar
   7    3    6 1
   8    3   18 ar
   9    4    5 ar
  10    4    8 1
  11    5   39 1
  12    6    7 2
  13    7    8 1
  14    7    9 1
  15    8   40 1
  16    9   10 1
  17    9   13 2
  18   10   11 2
  19   10   14 1
  20   11   12 1
  21   11   41 1
  22   12   13 1
  23   12   42 1
  24   14   15 am
  25   14   43 1
  26   15   16 2
  27   15   17 1
  28   17   23 ar
  29   17   22 ar
  30   18   44 1
  31   19   20 ar
  32   19   23 ar
  33   19   45 1
  34   20   21 ar
  35   20   46 1
  36   21   22 ar
  37   21   47 1
  38   22   25 1
  39   23   24 1
  40   26   27 am
  41   26   28 2
  42   27   29 1
  43   27   48 1
  44   29   30 1
  45   29   49 1
  46   29   50 1
  47   30   31 1
  48   30   51 1
  49   30   52 1
  50   31   32 1
  51   31   53 1
  52   31   54 1
  53   32   33 1
  54   32   37 1
  55   33   34 1
  56   33   55 1
  57   33   56 1
  58   34   35 1
  59   34   57 1
  60   34   58 1
  61   35   36 1
  62   35   59 1
  63   36   37 1
  64   36   60 1
  65   36   61 1
  66   37   62 1
  67   37   63 1

#	End of record

