#	Name: ASD00310108
#	Creating user name:	WinNT
#	Creation time:	15. 06. 2019 18:33

#	Modifying user name:	WinNT
#	Modification time:	15. 06. 2019 18:33

#	Program:	/corina/corina34_cracker 3.40 0067  02.08.2006

@<TRIPOS>MOLECULE
ASD00310108
  40   42    0    0    0
SMALL
NO_CHARGES


@<TRIPOS>ATOM
   1 N1            -0.0163     1.3499     0.0095 N.pl3   
   2 C2             0.0021    -0.0041     0.0020 C.2     
   3 C3             1.2922    -0.4483    -0.0127 C.2     
   4 C4             2.1476     0.7538    -0.0144 C.ar    
   5 C5             3.5232     0.9581    -0.0271 C.ar    
   6 C6             4.0242     2.2536    -0.0256 C.ar    
   7 C7             3.1468     3.3435    -0.0109 C.ar    
   8 C8             1.7853     3.1435     0.0021 C.ar    
   9 C9             1.2697     1.8501    -0.0001 C.ar    
  10 C10            1.7402    -1.8454    -0.0240 C.2     
  11 O11            2.9286    -2.1027    -0.0364 O.2     
  12 O12            0.8342    -2.8441    -0.0208 O.3     
  13 C13            5.4901     2.4818    -0.0391 C.ar    
  14 C14            6.0515     3.3603    -0.9647 C.ar    
  15 C15            7.4161     3.5703    -0.9745 C.ar    
  16 C16            8.2288     2.9061    -0.0627 C.ar    
  17 C17            7.6714     2.0315     0.8585 C.ar    
  18 C18            6.3074     1.8230     0.8770 C.ar    
  19 O19            9.5722     3.1138    -0.0742 O.3     
  20 C20           10.3475     2.3989     0.8902 C.3     
  21 C21           11.8253     2.7589     0.7246 C.3     
  22 C22           12.6554     1.9935     1.7571 C.3     
  23 O23           14.0357     2.3297     1.6025 O.3     
  24 F24            7.9619     4.4212    -1.8708 F       
  25 Cl25           3.7804     4.9598    -0.0086 Cl      
  26 H26           -0.8206     1.8921     0.0164 H       
  27 H27           -0.8729    -0.6372     0.0073 H       
  28 H28            4.1977     0.1147    -0.0377 H       
  29 H29            1.1158     3.9909     0.0138 H       
  30 H30            1.1772    -3.7482    -0.0286 H       
  31 H31            5.4200     3.8755    -1.6733 H       
  32 H32            8.3053     1.5164     1.5651 H       
  33 H33            5.8742     1.1457     1.5981 H       
  34 H34           10.0180     2.6688     1.8935 H       
  35 H35           10.2156     1.3274     0.7403 H       
  36 H36           12.1548     2.4891    -0.2787 H       
  37 H37           11.9573     3.8305     0.8745 H       
  38 H38           12.3259     2.2634     2.7605 H       
  39 H39           12.5235     0.9220     1.6073 H       
  40 H40           14.6223     1.8801     2.2261 H       
@<TRIPOS>BOND
   1    1    2 1
   2    1    9 1
   3    1   26 1
   4    2    3 2
   5    2   27 1
   6    3    4 1
   7    3   10 1
   8    4    5 ar
   9    4    9 ar
  10    5    6 ar
  11    5   28 1
  12    6    7 ar
  13    6   13 1
  14    7    8 ar
  15    7   25 1
  16    8    9 ar
  17    8   29 1
  18   10   11 2
  19   10   12 1
  20   12   30 1
  21   13   14 ar
  22   13   18 ar
  23   14   15 ar
  24   14   31 1
  25   15   16 ar
  26   15   24 1
  27   16   17 ar
  28   16   19 1
  29   17   18 ar
  30   17   32 1
  31   18   33 1
  32   19   20 1
  33   20   21 1
  34   20   34 1
  35   20   35 1
  36   21   22 1
  37   21   36 1
  38   21   37 1
  39   22   23 1
  40   22   38 1
  41   22   39 1
  42   23   40 1

#	End of record

