#	Name: ASD07330006
#	Creating user name:	WinNT
#	Creation time:	15. 06. 2019 21:11

#	Modifying user name:	WinNT
#	Modification time:	15. 06. 2019 21:11

#	Program:	/corina/corina34_cracker 3.40 0067  02.08.2006

@<TRIPOS>MOLECULE
ASD07330006
  76   80    0    0    0
SMALL
NO_CHARGES


@<TRIPOS>ATOM
   1 C1            -7.5971    -6.6112     7.2968 C.3     
   2 C2            -6.5764    -6.3800     6.1807 C.3     
   3 O3            -6.5298    -7.5289     5.3323 O.3     
   4 C4            -5.6666    -7.4867     4.2829 C.ar    
   5 C5            -4.8773    -6.3640     4.0790 C.ar    
   6 C6            -4.0008    -6.3203     3.0132 C.ar    
   7 C7            -3.9089    -7.4004     2.1456 C.ar    
   8 C8            -4.6987    -8.5240     2.3504 C.ar    
   9 C9            -5.5711    -8.5686     3.4196 C.ar    
  10 N10           -3.0194    -7.3565     1.0629 N.am    
  11 C11           -1.9074    -8.1287     1.0749 C.2     
  12 O12           -1.6592    -8.8663     2.0110 O.2     
  13 C13           -1.0125    -8.0414    -0.0864 C.ar    
  14 C14            0.1593    -8.7925    -0.1782 C.ar    
  15 C15            0.9373    -8.6418    -1.3126 C.ar    
  16 C16            0.5342    -7.7628    -2.3069 C.ar    
  17 N17           -0.5749    -7.0615    -2.2031 N.ar    
  18 C18           -1.3633    -7.1640    -1.1377 C.ar    
  19 N19           -2.5062    -6.4429    -1.0303 N.2     
  20 C20           -3.2823    -6.5435     0.0065 C.2     
  21 C21           -4.5374    -5.7102     0.0422 C.3     
  22 C22           -4.4495    -4.6100    -1.0175 C.3     
  23 N23           -5.6971    -6.5619    -0.2333 N.am    
  24 C24           -5.7363    -7.3745    -1.4517 C.3     
  25 C25           -5.2817    -8.7761    -1.1355 C.ar    
  26 C26           -3.9322    -9.0845    -1.1538 C.ar    
  27 C27           -3.5062   -10.3677    -0.8656 C.ar    
  28 C28           -4.4279   -11.3514    -0.5563 C.ar    
  29 F29           -4.0117   -12.6053    -0.2741 F       
  30 C30           -5.7906   -11.0444    -0.5362 C.ar    
  31 C31           -6.2108    -9.7461    -0.8233 C.ar    
  32 B32           -6.8439   -12.1548    -0.1863 Du      
  33 O33           -6.4122   -13.4746     0.1106 O.3     
  34 O34           -8.2282   -11.8393    -0.1668 O.3     
  35 C35           -6.7280    -6.5979     0.6341 C.2     
  36 O36           -6.6536    -6.0049     1.6895 O.2     
  37 C37           -7.9732    -7.3751     0.2927 C.3     
  38 C38           -9.0344    -7.1035     1.3277 C.ar    
  39 C39           -9.1191    -7.8988     2.4550 C.ar    
  40 C40          -10.0917    -7.6504     3.4052 C.ar    
  41 C41          -10.9812    -6.6046     3.2275 C.ar    
  42 F42          -11.9320    -6.3606     4.1557 F       
  43 C43          -10.8954    -5.8085     2.0976 C.ar    
  44 C44           -9.9189    -6.0554     1.1517 C.ar    
  45 C45          -11.8632    -4.6699     1.9025 C.3     
  46 F46          -11.5790    -4.0175     0.6980 F       
  47 F47          -13.1695    -5.1694     1.8653 F       
  48 F48          -11.7396    -3.7659     2.9629 F       
  49 H49           -7.6326    -5.7348     7.9439 H       
  50 H50           -8.5812    -6.7803     6.8598 H       
  51 H51           -7.3045    -7.4831     7.8818 H       
  52 H52           -6.8689    -5.5080     5.5957 H       
  53 H53           -5.5922    -6.2108     6.6176 H       
  54 H54           -4.9489    -5.5239     4.7540 H       
  55 H55           -3.3870    -5.4460     2.8542 H       
  56 H56           -4.6280    -9.3643     1.6756 H       
  57 H57           -6.1823    -9.4441     3.5816 H       
  58 H58            0.4502    -9.4698     0.6111 H       
  59 H59            1.8524    -9.2045    -1.4228 H       
  60 H60            1.1466    -7.6505    -3.1893 H       
  61 H61           -4.6451    -5.2574     1.0279 H       
  62 H62           -4.2554    -5.0586    -1.9917 H       
  63 H63           -5.3909    -4.0617    -1.0510 H       
  64 H64           -3.6394    -3.9259    -0.7646 H       
  65 H65           -6.7552    -7.4014    -1.8379 H       
  66 H66           -5.0752    -6.9384    -2.2006 H       
  67 H67           -3.2091    -8.3194    -1.3948 H       
  68 H68           -2.4521   -10.6024    -0.8822 H       
  69 H69           -7.2626    -9.5017    -0.8053 H       
  70 H70           -7.1320   -14.0876     0.3136 H       
  71 H71           -8.7988   -12.5867     0.0590 H       
  72 H72           -8.3356    -7.0681    -0.6884 H       
  73 H73           -7.7440    -8.4406     0.2783 H       
  74 H74           -8.4253    -8.7148     2.5933 H       
  75 H75          -10.1580    -8.2722     4.2858 H       
  76 H76           -9.8492    -5.4322     0.2724 H       
@<TRIPOS>BOND
   1    1    2 1
   2    1   49 1
   3    1   50 1
   4    1   51 1
   5    2    3 1
   6    2   52 1
   7    2   53 1
   8    3    4 1
   9    4    9 ar
  10    4    5 ar
  11    5    6 ar
  12    5   54 1
  13    6    7 ar
  14    6   55 1
  15    7    8 ar
  16    7   10 1
  17    8    9 ar
  18    8   56 1
  19    9   57 1
  20   10   20 1
  21   10   11 am
  22   11   12 2
  23   11   13 1
  24   13   18 ar
  25   13   14 ar
  26   14   15 ar
  27   14   58 1
  28   15   16 ar
  29   15   59 1
  30   16   17 ar
  31   16   60 1
  32   17   18 ar
  33   18   19 1
  34   19   20 2
  35   20   21 1
  36   21   22 1
  37   21   23 1
  38   21   61 1
  39   22   62 1
  40   22   63 1
  41   22   64 1
  42   23   24 1
  43   23   35 am
  44   24   25 1
  45   24   65 1
  46   24   66 1
  47   25   31 ar
  48   25   26 ar
  49   26   27 ar
  50   26   67 1
  51   27   28 ar
  52   27   68 1
  53   28   29 1
  54   28   30 ar
  55   30   31 ar
  56   30   32 1
  57   31   69 1
  58   32   33 1
  59   32   34 1
  60   33   70 1
  61   34   71 1
  62   35   36 2
  63   35   37 1
  64   37   38 1
  65   37   72 1
  66   37   73 1
  67   38   44 ar
  68   38   39 ar
  69   39   40 ar
  70   39   74 1
  71   40   41 ar
  72   40   75 1
  73   41   42 1
  74   41   43 ar
  75   43   44 ar
  76   43   45 1
  77   44   76 1
  78   45   46 1
  79   45   47 1
  80   45   48 1

#	End of record

