#	Name: ASD01140494
#	Creating user name:	WinNT
#	Creation time:	15. 06. 2019 19:01

#	Modifying user name:	WinNT
#	Modification time:	15. 06. 2019 19:01

#	Program:	/corina/corina34_cracker 3.40 0067  02.08.2006

@<TRIPOS>MOLECULE
ASD01140494
  46   47    0    0    0
SMALL
NO_CHARGES


@<TRIPOS>ATOM
   1 C1            -0.3918     2.2172    -0.1289 C.ar    
   2 C2            -1.0821     1.4679     0.8041 C.ar    
   3 C3            -0.6587     1.4368     2.1201 C.ar    
   4 C4             0.4580     2.1548     2.5121 C.ar    
   5 C5             1.1565     2.9075     1.5917 C.ar    
   6 C6             0.7359     2.9440     0.2607 C.ar    
   7 Cl7           -0.9201     2.2499    -1.7823 Cl      
   8 C8             1.4805     3.7481    -0.7316 C.2     
   9 O9             1.1186     3.7683    -1.8934 O.2     
  10 C10            2.6554     4.5213    -0.3159 C.2     
  11 C11            2.6188     5.9024    -0.3435 C.2     
  12 N12            3.6569     6.6149     0.1427 N.pl3   
  13 N13            3.9141     2.4806     0.1363 N.am    
  14 C14            3.8710     3.8277     0.1296 C.2     
  15 O15            4.8390     4.4691     0.4927 O.2     
  16 C16            5.1587     1.7893     0.4819 C.3     
  17 C17            5.1974     0.4288    -0.2170 C.3     
  18 C18            5.1854     0.6337    -1.7331 C.3     
  19 C19            5.2257     1.5865     1.9969 C.3     
  20 C20            3.5724     8.0081     0.2219 C.ar    
  21 C21            4.6401     8.7426     0.7221 C.ar    
  22 C22            4.5540    10.1187     0.7987 C.ar    
  23 C23            3.4055    10.7661     0.3778 C.ar    
  24 C24            2.3401    10.0368    -0.1206 C.ar    
  25 C25            2.4229     8.6609    -0.2048 C.ar    
  26 Cl26           3.3009    12.4962     0.4756 Cl      
  27 H27           -1.9544     0.9056     0.5051 H       
  28 H28           -1.2021     0.8497     2.8457 H       
  29 H29            0.7828     2.1257     3.5416 H       
  30 H30            2.0270     3.4675     1.8997 H       
  31 H31            1.7595     6.4117    -0.7542 H       
  32 H32            4.4616     6.1603     0.4372 H       
  33 H33            3.1212     1.9688    -0.0878 H       
  34 H34            6.0094     2.3887     0.1575 H       
  35 H35            6.1049    -0.1019     0.0708 H       
  36 H36            4.3258    -0.1559     0.0775 H       
  37 H37            4.2778     1.1643    -2.0209 H       
  38 H38            6.0570     1.2183    -2.0276 H       
  39 H39            5.2130    -0.3356    -2.2310 H       
  40 H40            5.1982     2.5558     2.4948 H       
  41 H41            4.3750     0.9872     2.3212 H       
  42 H42            6.1517     1.0722     2.2540 H       
  43 H43            5.5364     8.2379     1.0511 H       
  44 H44            5.3837    10.6903     1.1879 H       
  45 H45            1.4449    10.5445    -0.4480 H       
  46 H46            1.5930     8.0926    -0.5983 H       
@<TRIPOS>BOND
   1    1    2 ar
   2    1    6 ar
   3    1    7 1
   4    2    3 ar
   5    2   27 1
   6    3    4 ar
   7    3   28 1
   8    4    5 ar
   9    4   29 1
  10    5    6 ar
  11    5   30 1
  12    6    8 1
  13    8    9 2
  14    8   10 1
  15   10   11 2
  16   10   14 1
  17   11   12 1
  18   11   31 1
  19   12   20 1
  20   12   32 1
  21   13   14 am
  22   13   16 1
  23   13   33 1
  24   14   15 2
  25   16   17 1
  26   16   19 1
  27   16   34 1
  28   17   18 1
  29   17   35 1
  30   17   36 1
  31   18   37 1
  32   18   38 1
  33   18   39 1
  34   19   40 1
  35   19   41 1
  36   19   42 1
  37   20   21 ar
  38   20   25 ar
  39   21   22 ar
  40   21   43 1
  41   22   23 ar
  42   22   44 1
  43   23   24 ar
  44   23   26 1
  45   24   25 ar
  46   24   45 1
  47   25   46 1

#	End of record

