#	Name: ASD05430142
#	Creating user name:	WinNT
#	Creation time:	15. 06. 2019 20:59

#	Modifying user name:	WinNT
#	Modification time:	15. 06. 2019 20:59

#	Program:	/corina/corina34_cracker 3.40 0067  02.08.2006

@<TRIPOS>MOLECULE
ASD05430142
  64   69    0    0    0
SMALL
NO_CHARGES


@<TRIPOS>ATOM
   1 C1             0.0994     1.2624    -0.6713 C.ar    
   2 C2             0.1751    -0.1073    -0.9210 C.ar    
   3 C3             1.4097    -0.7417    -0.9638 C.ar    
   4 C4             2.5662    -0.0207    -0.7593 C.ar    
   5 C5             2.4981     1.3537    -0.5083 C.ar    
   6 C6             1.2550     1.9923    -0.4656 C.ar    
   7 O7             4.9836     0.1257    -0.0958 O.3     
   8 C8             4.9166     1.4879    -0.1810 C.2     
   9 C9             3.7318     2.1255    -0.2892 C.2     
  10 C10            6.1854    -0.4414     0.4175 C.3     
  11 C11            6.9566     0.4711     1.3712 C.3     
  12 N12            7.1774     1.7590     0.7108 N.pl3   
  13 C13            6.1906     2.2366    -0.1498 C.2     
  14 C14            9.5075     1.6670     1.3828 C.ar    
  15 C15           10.2652     0.9917     0.4442 C.ar    
  16 C16           11.3046     0.1769     0.8511 C.ar    
  17 C17           11.5870     0.0370     2.1993 C.ar    
  18 C18           10.8274     0.7139     3.1385 C.ar    
  19 C19            9.7885     1.5282     2.7293 C.ar    
  20 N20           -0.9985    -0.8463    -1.1289 N.pl3   
  21 C21           -1.2448    -1.7099    -2.1644 C.2     
  22 C22           -2.4852    -2.2000    -1.9770 C.2     
  23 N23           -2.9867    -1.6539    -0.8595 N.2     
  24 C24           -2.1034    -0.8457    -0.3391 C.2     
  25 C25           -3.1884    -3.1902    -2.8693 C.3     
  26 N26            6.4007     3.2729    -0.8913 N.2     
  27 C27           -1.1137     3.2859    -0.3747 C.3     
  28 O28           -1.1107     1.8810    -0.6357 O.3     
  29 C29            8.3782     2.5601     0.9376 C.3     
  30 C30            8.7545     3.2510    -0.3777 C.3     
  31 O31            7.6324     3.9577    -0.8967 O.3     
  32 F32           12.6026    -0.7596     2.5982 F       
  33 O33            9.2764     4.3943     2.2297 O.3     
  34 C34            8.0995     3.6136     2.0115 C.3     
  35 C35            6.0018    -1.8673     0.9624 C.3     
  36 O36            7.2343    -2.1642     0.2746 O.3     
  37 C37            7.0723    -1.0799    -0.6627 C.3     
  38 H38            1.4637    -1.8028    -1.1575 H       
  39 H39            3.5249    -0.5168    -0.7925 H       
  40 H40            1.1979     3.0534    -0.2725 H       
  41 H41            3.6893     3.2021    -0.2148 H       
  42 H42            6.3770     0.6217     2.2820 H       
  43 H43            7.9164     0.0165     1.6165 H       
  44 H44           10.0445     1.1007    -0.6074 H       
  45 H45           11.8962    -0.3509     0.1176 H       
  46 H46           11.0468     0.6055     4.1904 H       
  47 H47            9.1959     2.0562     3.4616 H       
  48 H48           -0.5733    -1.9507    -2.9753 H       
  49 H49           -2.2325    -0.2675     0.5639 H       
  50 H50           -2.9686    -4.2031    -2.5321 H       
  51 H51           -4.2639    -3.0183    -2.8262 H       
  52 H52           -2.8413    -3.0654    -3.8950 H       
  53 H53           -0.5443     3.8005    -1.1488 H       
  54 H54           -2.1399     3.6531    -0.3738 H       
  55 H55           -0.6590     3.4758     0.5975 H       
  56 H56            9.5708     3.9505    -0.1981 H       
  57 H57            9.0756     2.5013    -1.1009 H       
  58 H58            9.1724     5.0837     2.8998 H       
  59 H59            7.2887     4.2631     1.6816 H       
  60 H60            7.8141     3.1192     2.9401 H       
  61 H61            6.0740    -1.9377     2.0477 H       
  62 H62            5.1337    -2.3866     0.5562 H       
  63 H63            6.5336    -1.3568    -1.5690 H       
  64 H64            7.9909    -0.5281    -0.8623 H       
@<TRIPOS>BOND
   1    1    2 ar
   2    1    6 ar
   3    1   28 1
   4    2    3 ar
   5    2   20 1
   6    3    4 ar
   7    3   38 1
   8    4    5 ar
   9    4   39 1
  10    5    6 ar
  11    5    9 1
  12    6   40 1
  13    7    8 1
  14    7   10 1
  15    8    9 2
  16    8   13 1
  17    9   41 1
  18   10   11 1
  19   10   35 1
  20   10   37 1
  21   11   12 1
  22   11   42 1
  23   11   43 1
  24   12   13 1
  25   12   29 1
  26   13   26 2
  27   14   15 ar
  28   14   19 ar
  29   14   29 1
  30   15   16 ar
  31   15   44 1
  32   16   17 ar
  33   16   45 1
  34   17   18 ar
  35   17   32 1
  36   18   19 ar
  37   18   46 1
  38   19   47 1
  39   20   21 1
  40   20   24 1
  41   21   22 2
  42   21   48 1
  43   22   23 1
  44   22   25 1
  45   23   24 2
  46   24   49 1
  47   25   50 1
  48   25   51 1
  49   25   52 1
  50   26   31 1
  51   27   28 1
  52   27   53 1
  53   27   54 1
  54   27   55 1
  55   29   30 1
  56   29   34 1
  57   30   31 1
  58   30   56 1
  59   30   57 1
  60   33   34 1
  61   33   58 1
  62   34   59 1
  63   34   60 1
  64   35   36 1
  65   35   61 1
  66   35   62 1
  67   36   37 1
  68   37   63 1
  69   37   64 1

#	End of record

