#	Name: ASD01916306
#	Creating user name:	WinNT
#	Creation time:	15. 06. 2019 20:07

#	Modifying user name:	WinNT
#	Modification time:	15. 06. 2019 20:07

#	Program:	/corina/corina34_cracker 3.40 0067  02.08.2006

@<TRIPOS>MOLECULE
ASD01916306
  42   43    0    0    0
SMALL
NO_CHARGES


@<TRIPOS>ATOM
   1 C1            -0.0167     1.3817     0.0096 C.ar    
   2 C2             0.0021    -0.0041     0.0020 C.ar    
   3 C3             1.2064    -0.6809    -0.0132 C.ar    
   4 C4             2.4059     0.0359    -0.0208 C.ar    
   5 C5             2.3775     1.4338    -0.0130 C.ar    
   6 C6             1.1682     2.0962     0.0022 C.ar    
   7 F7            -1.1593    -0.6943     0.0099 F       
   8 C8             3.6584    -0.6580    -0.0361 C.1     
   9 C9             4.6853    -1.2269    -0.0486 C.1     
  10 C10            5.9379    -1.9208    -0.0638 C.ar    
  11 N11            7.0673    -1.2170    -0.0709 N.ar    
  12 C12            8.2398    -1.8198    -0.0850 C.ar    
  13 C13            8.2848    -3.2210    -0.0924 C.ar    
  14 C14            7.0730    -3.9259    -0.0846 C.ar    
  15 N15            5.9402    -3.2516    -0.0651 N.ar    
  16 C16            9.5757    -3.9362    -0.1086 C.2     
  17 O17           10.6178    -3.3098    -0.1157 O.2     
  18 N18            9.5995    -5.2838    -0.1157 N.am    
  19 C19           10.8809    -5.9937    -0.1317 C.3     
  20 C20           10.6994    -7.3875     0.4727 C.3     
  21 O21            9.8299    -8.1579    -0.3594 O.3     
  22 C22           12.0592    -8.0819     0.5706 C.3     
  23 C23           10.0891    -7.2618     1.8700 C.3     
  24 C24           11.3739    -6.1236    -1.5743 C.3     
  25 H25           -0.9607     1.9063     0.0170 H       
  26 H26            1.2207    -1.7608    -0.0187 H       
  27 H27            3.3010     1.9937    -0.0185 H       
  28 H28            1.1459     3.1760     0.0082 H       
  29 H29            9.1525    -1.2424    -0.0910 H       
  30 H30            7.0675    -5.0059    -0.0904 H       
  31 H31            8.7682    -5.7836    -0.1101 H       
  32 H32           11.6125    -5.4363     0.4534 H       
  33 H33            8.9479    -7.7763    -0.4665 H       
  34 H34           12.7225    -7.4942     1.2053 H       
  35 H35           11.9299    -9.0749     1.0012 H       
  36 H36           12.4940    -8.1714    -0.4249 H       
  37 H37            9.1204    -6.7671     1.8003 H       
  38 H38            9.9598    -8.2548     2.3006 H       
  39 H39           10.7523    -6.6741     2.5047 H       
  40 H40           10.6424    -6.6809    -2.1594 H       
  41 H41           11.5032    -5.1307    -2.0049 H       
  42 H42           12.3273    -6.6518    -1.5863 H       
@<TRIPOS>BOND
   1    1    2 ar
   2    1    6 ar
   3    1   25 1
   4    2    3 ar
   5    2    7 1
   6    3    4 ar
   7    3   26 1
   8    4    5 ar
   9    4    8 1
  10    5    6 ar
  11    5   27 1
  12    6   28 1
  13    8    9 3
  14    9   10 1
  15   10   11 ar
  16   10   15 ar
  17   11   12 ar
  18   12   13 ar
  19   12   29 1
  20   13   14 ar
  21   13   16 1
  22   14   15 ar
  23   14   30 1
  24   16   17 2
  25   16   18 am
  26   18   19 1
  27   18   31 1
  28   19   20 1
  29   19   24 1
  30   19   32 1
  31   20   21 1
  32   20   22 1
  33   20   23 1
  34   21   33 1
  35   22   34 1
  36   22   35 1
  37   22   36 1
  38   23   37 1
  39   23   38 1
  40   23   39 1
  41   24   40 1
  42   24   41 1
  43   24   42 1

#	End of record

