#	Name: ASD03330174
#	Creating user name:	WinNT
#	Creation time:	15. 06. 2019 20:36

#	Modifying user name:	WinNT
#	Modification time:	15. 06. 2019 20:36

#	Program:	/corina/corina34_cracker 3.40 0067  02.08.2006

@<TRIPOS>MOLECULE
ASD03330174
  77   81    0    0    0
SMALL
NO_CHARGES


@<TRIPOS>ATOM
   1 C1             1.2041     0.8712    -2.1843 C.2     
   2 C2             0.9440    -0.3210    -1.5649 C.2     
   3 C3             2.5392     1.1272    -2.3990 C.2     
   4 C4             3.3870     0.1358    -1.9518 C.2     
   5 S5             2.4491    -1.1661    -1.2337 S.3     
   6 C6             4.8573     0.1635    -2.0597 C.ar    
   7 C7             5.5728     1.2746    -1.6043 C.ar    
   8 C8             6.9465     1.2961    -1.7072 C.ar    
   9 C9             7.6206     0.2159    -2.2630 C.ar    
  10 C10            6.9136    -0.8904    -2.7174 C.ar    
  11 C11            5.5403    -0.9236    -2.6125 C.ar    
  12 C12            3.0248     2.3641    -3.0562 C.ar    
  13 C13            2.8608     3.5989    -2.4311 C.ar    
  14 C14            3.6531     2.2956    -4.3003 C.ar    
  15 C15            4.1037     3.4510    -4.9074 C.ar    
  16 C16            3.9334     4.6751    -4.2834 C.ar    
  17 C17            3.3151     4.7475    -3.0470 C.ar    
  18 Cl18           4.5033     6.1240    -5.0514 Cl      
  19 Cl19           3.8681     0.7610    -5.0829 Cl      
  20 C20           -0.3422    -0.8006    -1.2395 C.2     
  21 C21           -0.4983    -2.1343    -0.5554 C.3     
  22 O22           -1.3239    -0.1385    -1.5108 O.2     
  23 O23            8.9749     0.2417    -2.3628 O.3     
  24 C24           -1.8142    -2.1562     0.2249 C.3     
  25 C25           -1.9727    -3.5102     0.9195 C.3     
  26 C26           -1.9833    -4.6236    -0.1299 C.3     
  27 C27           -0.6674    -4.6016    -0.9102 C.3     
  28 C28           -0.5089    -3.2476    -1.6047 C.3     
  29 N29           -2.1355    -5.9236     0.5370 N.3     
  30 C30           -2.1595    -7.0178    -0.4421 C.3     
  31 C31           -2.1722    -8.3606     0.2917 C.3     
  32 C32           -3.4067    -8.4317     1.1947 C.3     
  33 C33           -3.3823    -7.2539     2.1729 C.3     
  34 C34           -3.3346    -5.9432     1.3845 C.3     
  35 C35           -3.1338    -4.4083    -1.0792 C.2     
  36 O36           -2.9635    -4.5233    -2.2744 O.2     
  37 N37           -4.3520    -4.0879    -0.5999 N.am    
  38 O38           13.2087    -1.7186    -3.6199 O.3     
  39 F39           -4.5636    -8.3645     0.4109 F       
  40 F40           -3.3943    -9.6339     1.9100 F       
  41 C41            9.6044    -0.9018    -2.9443 C.3     
  42 C42           11.1196    -0.6911    -2.9717 C.3     
  43 C43           11.7936    -1.9154    -3.5943 C.3     
  44 H44            0.4236     1.5546    -2.4848 H       
  45 H45            5.0496     2.1151    -1.1727 H       
  46 H46            7.5001     2.1542    -1.3556 H       
  47 H47            7.4417    -1.7275    -3.1494 H       
  48 H48            4.9916    -1.7841    -2.9657 H       
  49 H49            2.3785     3.6570    -1.4665 H       
  50 H50            4.5902     3.3997    -5.8702 H       
  51 H51            3.1849     5.7051    -2.5648 H       
  52 H52            0.3338    -2.2900     0.1312 H       
  53 H53           -1.8067    -1.3631     0.9725 H       
  54 H54           -2.6464    -2.0005    -0.4617 H       
  55 H55           -1.1406    -3.6660     1.6060 H       
  56 H56           -2.9102    -3.5259     1.4753 H       
  57 H57            0.1647    -4.7574    -0.2236 H       
  58 H58           -0.6750    -5.3948    -1.6577 H       
  59 H59           -1.3410    -3.0919    -2.2913 H       
  60 H60            0.4286    -3.2320    -2.1606 H       
  61 H61           -3.0536    -6.9330    -1.0597 H       
  62 H62           -1.2741    -6.9582    -1.0751 H       
  63 H63           -2.2057    -9.1722    -0.4351 H       
  64 H64           -1.2715    -8.4521     0.8989 H       
  65 H65           -4.2805    -7.2749     2.7901 H       
  66 H66           -2.5008    -7.3279     2.8096 H       
  67 H67           -3.3027    -5.1030     2.0782 H       
  68 H68           -4.2232    -5.8634     0.7583 H       
  69 H69           -4.4736    -3.9299     0.3495 H       
  70 H70           -5.1073    -4.0152    -1.2042 H       
  71 H71           13.7017    -2.4572    -4.0026 H       
  72 H72            9.3712    -1.7859    -2.3509 H       
  73 H73            9.2383    -1.0401    -3.9616 H       
  74 H74           11.3527     0.1930    -3.5651 H       
  75 H75           11.4857    -0.5528    -1.9544 H       
  76 H76           11.4275    -2.0537    -4.6116 H       
  77 H77           11.5604    -2.7995    -3.0009 H       
@<TRIPOS>BOND
   1    1    2 2
   2    1    3 1
   3    1   44 1
   4    2   20 1
   5    2    5 1
   6    3    4 2
   7    3   12 1
   8    4    5 1
   9    4    6 1
  10    6    7 ar
  11    6   11 ar
  12    7    8 ar
  13    7   45 1
  14    8    9 ar
  15    8   46 1
  16    9   10 ar
  17    9   23 1
  18   10   11 ar
  19   10   47 1
  20   11   48 1
  21   12   13 ar
  22   12   14 ar
  23   13   17 ar
  24   13   49 1
  25   14   15 ar
  26   14   19 1
  27   15   16 ar
  28   15   50 1
  29   16   17 ar
  30   16   18 1
  31   17   51 1
  32   20   21 1
  33   20   22 2
  34   21   24 1
  35   21   28 1
  36   21   52 1
  37   23   41 1
  38   24   25 1
  39   24   53 1
  40   24   54 1
  41   25   26 1
  42   25   55 1
  43   25   56 1
  44   26   27 1
  45   26   29 1
  46   26   35 1
  47   27   28 1
  48   27   57 1
  49   27   58 1
  50   28   59 1
  51   28   60 1
  52   29   30 1
  53   29   34 1
  54   30   31 1
  55   30   61 1
  56   30   62 1
  57   31   32 1
  58   31   63 1
  59   31   64 1
  60   32   33 1
  61   32   39 1
  62   32   40 1
  63   33   34 1
  64   33   65 1
  65   33   66 1
  66   34   67 1
  67   34   68 1
  68   35   36 2
  69   35   37 am
  70   37   69 1
  71   37   70 1
  72   38   43 1
  73   38   71 1
  74   41   42 1
  75   41   72 1
  76   41   73 1
  77   42   43 1
  78   42   74 1
  79   42   75 1
  80   43   76 1
  81   43   77 1

#	End of record

