#	Name: ASD01910730
#	Creating user name:	WinNT
#	Creation time:	15. 06. 2019 19:56

#	Modifying user name:	WinNT
#	Modification time:	15. 06. 2019 19:56

#	Program:	/corina/corina34_cracker 3.40 0067  02.08.2006

@<TRIPOS>MOLECULE
ASD01910730
  55   58    0    0    0
SMALL
NO_CHARGES


@<TRIPOS>ATOM
   1 C1            12.4109    -2.3100     4.1826 C.ar    
   2 N2            12.9572    -2.4710     2.9891 N.ar    
   3 C3            12.2834    -2.1419     1.9034 C.ar    
   4 C4            10.9952    -1.6243     2.0161 C.ar    
   5 N5            10.4510    -1.4644     3.2155 N.ar    
   6 C6            11.1329    -1.7967     4.2985 C.ar    
   7 N7            10.2818    -1.2757     0.8750 N.3     
   8 C8             8.9536    -0.7540     1.2235 C.3     
   9 C9             8.2728    -0.2151    -0.0392 C.3     
  10 N10            8.2769    -1.2738    -1.0602 N.am    
  11 C11            9.5516    -1.9409    -1.3658 C.3     
  12 C12           10.1820    -2.4118    -0.0509 C.3     
  13 C13            7.1426    -1.6236    -1.6985 C.2     
  14 C14            7.1893    -2.5995    -2.8053 C.ar    
  15 O15            6.0808    -1.1355    -1.3629 O.2     
  16 C16            6.1815    -3.5597    -2.9341 C.ar    
  17 C17            6.2216    -4.4728    -3.9654 C.ar    
  18 C18            7.2619    -4.4451    -4.8832 C.ar    
  19 C19            8.2780    -3.4857    -4.7637 C.ar    
  20 C20            8.2362    -2.5603    -3.7265 C.ar    
  21 C21            9.3527    -3.4561    -5.7097 C.1     
  22 C22           10.2337    -3.4318    -6.4852 C.1     
  23 C23           11.3383    -3.4014    -7.4577 C.3     
  24 O24            7.2965    -5.3466    -5.8961 O.3     
  25 C25            6.2296    -6.2954    -5.9569 C.3     
  26 C26           12.2870    -2.2847    -7.1055 C.ar    
  27 C27           13.3498    -2.5232    -6.2544 C.ar    
  28 C28           14.2199    -1.4988    -5.9313 C.ar    
  29 C29           14.0275    -0.2360    -6.4597 C.ar    
  30 C30           12.9652     0.0023    -7.3115 C.ar    
  31 C31           12.0976    -1.0232    -7.6380 C.ar    
  32 H32           12.9633    -2.5846     5.0691 H       
  33 H33           12.7302    -2.2733     0.9290 H       
  34 H34           10.6906    -1.6668     5.2751 H       
  35 H35            8.3486    -1.5544     1.6495 H       
  36 H36            9.0582     0.0503     1.9517 H       
  37 H37            7.2455     0.0676     0.1909 H       
  38 H38            8.8202     0.6520    -0.4087 H       
  39 H39            9.3698    -2.7991    -2.0127 H       
  40 H40           10.2219    -1.2396    -1.8628 H       
  41 H41           11.1776    -2.8098    -0.2469 H       
  42 H42            9.5600    -3.1891     0.3928 H       
  43 H43            5.3692    -3.5863    -2.2229 H       
  44 H44            5.4406    -5.2128    -4.0595 H       
  45 H45            9.0158    -1.8193    -3.6296 H       
  46 H46           11.8709    -4.3521    -7.4324 H       
  47 H47           10.9376    -3.2359    -8.4577 H       
  48 H48            6.3787    -6.9555    -6.8114 H       
  49 H49            6.2151    -6.8851    -5.0403 H       
  50 H50            5.2812    -5.7692    -6.0654 H       
  51 H51           13.5001    -3.5098    -5.8416 H       
  52 H52           15.0499    -1.6850    -5.2658 H       
  53 H53           14.7070     0.5645    -6.2067 H       
  54 H54           12.8147     0.9890    -7.7241 H       
  55 H55           11.2677    -0.8370    -8.3036 H       
@<TRIPOS>BOND
   1    1    2 ar
   2    1    6 ar
   3    1   32 1
   4    2    3 ar
   5    3    4 ar
   6    3   33 1
   7    4    5 ar
   8    4    7 1
   9    5    6 ar
  10    6   34 1
  11    7    8 1
  12    7   12 1
  13    8    9 1
  14    8   35 1
  15    8   36 1
  16    9   10 1
  17    9   37 1
  18    9   38 1
  19   10   11 1
  20   10   13 am
  21   11   12 1
  22   11   39 1
  23   11   40 1
  24   12   41 1
  25   12   42 1
  26   13   14 1
  27   13   15 2
  28   14   16 ar
  29   14   20 ar
  30   16   17 ar
  31   16   43 1
  32   17   18 ar
  33   17   44 1
  34   18   19 ar
  35   18   24 1
  36   19   20 ar
  37   19   21 1
  38   20   45 1
  39   21   22 3
  40   22   23 1
  41   23   26 1
  42   23   46 1
  43   23   47 1
  44   24   25 1
  45   25   48 1
  46   25   49 1
  47   25   50 1
  48   26   27 ar
  49   26   31 ar
  50   27   28 ar
  51   27   51 1
  52   28   29 ar
  53   28   52 1
  54   29   30 ar
  55   29   53 1
  56   30   31 ar
  57   30   54 1
  58   31   55 1

#	End of record

