#	Name: ASD01910349
#	Creating user name:	WinNT
#	Creation time:	15. 06. 2019 19:55

#	Modifying user name:	WinNT
#	Modification time:	15. 06. 2019 19:55

#	Program:	/corina/corina34_cracker 3.40 0067  02.08.2006

@<TRIPOS>MOLECULE
ASD01910349
  36   38    0    0    0
SMALL
NO_CHARGES


@<TRIPOS>ATOM
   1 C1            -0.0460     1.4243    -0.2646 C.ar    
   2 C2            -0.0216    -0.0069    -0.2250 C.1     
   3 C3            -0.0016    -1.1803    -0.1925 C.1     
   4 C4             0.0227    -2.6116    -0.1529 C.ar    
   5 C5            -1.1377    -3.3228     0.1731 C.ar    
   6 C6            -1.1138    -4.6876     0.2102 C.ar    
   7 C7             0.0697    -5.3745    -0.0769 C.ar    
   8 C8             1.2294    -4.6647    -0.4027 C.ar    
   9 C9             1.2055    -3.3000    -0.4459 C.ar    
  10 C10            0.0949    -6.8499    -0.0357 C.2     
  11 O11           -0.9405    -7.4719     0.1034 O.2     
  12 N12            1.2657    -7.5073    -0.1521 N.am    
  13 C13            1.1107     2.1378    -0.5897 C.ar    
  14 C14            1.0798     3.5162    -0.6259 C.ar    
  15 C15           -0.0925     4.1944    -0.3409 C.ar    
  16 C16           -1.2428     3.4972    -0.0175 C.ar    
  17 C17           -1.2304     2.1161     0.0166 C.ar    
  18 C18            1.7002    -8.9117    -0.1105 C.3     
  19 C19            3.0722    -8.4165     0.3676 C.3     
  20 C20            2.6699    -7.1366    -0.3833 C.3     
  21 O21            3.1780    -8.2612     1.7842 O.3     
  22 F22           -2.3541     1.4358     0.3320 F       
  23 H23           -2.0517    -2.7923     0.3956 H       
  24 H24           -2.0092    -5.2366     0.4618 H       
  25 H25            2.1432    -5.1959    -0.6241 H       
  26 H26            2.1012    -2.7518    -0.6979 H       
  27 H27            2.0270     1.6111    -0.8119 H       
  28 H28            1.9734     4.0682    -0.8771 H       
  29 H29           -0.1092     5.2738    -0.3708 H       
  30 H30           -2.1536     4.0335     0.2040 H       
  31 H31            1.1708    -9.5080     0.6327 H       
  32 H32            1.7277    -9.3868    -1.0911 H       
  33 H33            3.9169    -8.9448    -0.0745 H       
  34 H34            2.9564    -7.1421    -1.4350 H       
  35 H35            2.9653    -6.2213     0.1297 H       
  36 H36            4.0434    -7.9491     2.0821 H       
@<TRIPOS>BOND
   1    1    2 1
   2    1   13 ar
   3    1   17 ar
   4    2    3 3
   5    3    4 1
   6    4    5 ar
   7    4    9 ar
   8    5    6 ar
   9    5   23 1
  10    6    7 ar
  11    6   24 1
  12    7    8 ar
  13    7   10 1
  14    8    9 ar
  15    8   25 1
  16    9   26 1
  17   10   11 2
  18   10   12 am
  19   12   18 1
  20   12   20 1
  21   13   14 ar
  22   13   27 1
  23   14   15 ar
  24   14   28 1
  25   15   16 ar
  26   15   29 1
  27   16   17 ar
  28   16   30 1
  29   17   22 1
  30   18   19 1
  31   18   31 1
  32   18   32 1
  33   19   20 1
  34   19   21 1
  35   19   33 1
  36   20   34 1
  37   20   35 1
  38   21   36 1

#	End of record

