#	Name: ASD01028776
#	Creating user name:	WinNT
#	Creation time:	15. 06. 2019 18:58

#	Modifying user name:	WinNT
#	Modification time:	15. 06. 2019 18:58

#	Program:	/corina/corina34_cracker 3.40 0067  02.08.2006

@<TRIPOS>MOLECULE
ASD01028776
  17   18    0    0    0
SMALL
NO_CHARGES


@<TRIPOS>ATOM
   1 N1            -0.0163     1.3503     0.0095 N.pl3   
   2 C2             0.0021    -0.0041     0.0020 C.2     
   3 C3             1.1515    -0.7120    -0.0124 C.2     
   4 C4             2.3968    -0.0441    -0.0207 C.2     
   5 C5             2.3876     1.4324    -0.0132 C.ar    
   6 N6             3.5179     2.1279    -0.0198 N.ar    
   7 C7             3.5131     3.4418    -0.0127 C.ar    
   8 C8             2.3220     4.1591     0.0025 C.ar    
   9 C9             1.1169     3.4823     0.0100 C.ar    
  10 C10            1.1450     2.0871     0.0023 C.ar    
  11 O11            3.4455    -0.6673    -0.0333 O.2     
  12 Br12           2.3507     6.0499     0.0137 Br      
  13 H13           -0.8694     1.8119     0.0160 H       
  14 H14           -0.9372    -0.5371     0.0082 H       
  15 H15            1.1193    -1.7915    -0.0172 H       
  16 H16            4.4524     3.9749    -0.0185 H       
  17 H17            0.1794     4.0184     0.0215 H       
@<TRIPOS>BOND
   1    1    2 1
   2    1   10 1
   3    1   13 1
   4    2    3 2
   5    2   14 1
   6    3    4 1
   7    3   15 1
   8    4    5 1
   9    4   11 2
  10    5    6 ar
  11    5   10 ar
  12    6    7 ar
  13    7    8 ar
  14    7   16 1
  15    8    9 ar
  16    8   12 1
  17    9   10 ar
  18    9   17 1

#	End of record

