#	Name: ASD03091588
#	Creating user name:	WinNT
#	Creation time:	15. 06. 2019 20:31

#	Modifying user name:	WinNT
#	Modification time:	15. 06. 2019 20:31

#	Program:	/corina/corina34_cracker 3.40 0067  02.08.2006

@<TRIPOS>MOLECULE
ASD03091588
  40   43    0    0    0
SMALL
NO_CHARGES


@<TRIPOS>ATOM
   1 C1            -0.0170     1.4037     0.0098 C.ar    
   2 C2             0.0021    -0.0041     0.0020 C.ar    
   3 C3             1.2200    -0.6688    -0.0139 C.ar    
   4 C4             2.4005     0.0568    -0.0219 C.ar    
   5 C5             2.3742     1.4524    -0.0137 C.ar    
   6 C6             1.1856     2.1204     0.0021 C.ar    
   7 O7            -1.2785    -0.4265     0.0127 O.3     
   8 C8            -2.1117     0.6376     0.0269 C.2     
   9 C9            -1.3830     1.7834     0.0305 C.2     
  10 C10           -3.5777     0.5657     0.0406 C.2     
  11 O11           -4.2369     1.5885     0.0524 O.2     
  12 N12           -4.1936    -0.6330     0.0401 N.am    
  13 N13           -6.9122    -1.8301     1.8295 N.3     
  14 C14           -6.1617    -0.6119     1.4966 C.3     
  15 C15           -5.6568    -0.7047     0.0538 C.3     
  16 C16           -6.1115    -2.0418    -0.5447 C.3     
  17 C17           -7.6431    -2.1062    -0.4910 C.3     
  18 C18           -8.0929    -1.9752     0.9669 C.3     
  19 C19           -6.0522    -3.0189     1.7481 C.3     
  20 C20           -5.5436    -3.1799     0.3128 C.3     
  21 N21            3.6233    -0.6118    -0.0378 N.pl3   
  22 H22            1.2478    -1.7485    -0.0196 H       
  23 H23            3.3012     2.0065    -0.0194 H       
  24 H24            1.1719     3.2003     0.0077 H       
  25 H25           -1.7700     2.7915     0.0418 H       
  26 H26           -3.6682    -1.4483     0.0307 H       
  27 H27           -6.8132     0.2559     1.5987 H       
  28 H28           -5.3129    -0.5114     2.1731 H       
  29 H29           -6.0702     0.1167    -0.5314 H       
  30 H30           -5.7687    -2.1269    -1.5759 H       
  31 H31           -8.0638    -1.2895    -1.0777 H       
  32 H32           -7.9829    -3.0604    -0.8937 H       
  33 H33           -8.6484    -2.8668     1.2576 H       
  34 H34           -8.7310    -1.0979     1.0732 H       
  35 H35           -5.2046    -2.9014     2.4233 H       
  36 H36           -6.6245    -3.9019     2.0324 H       
  37 H37           -5.8750    -4.1384    -0.0867 H       
  38 H38           -4.4546    -3.1353     0.3040 H       
  39 H39            3.6458    -1.5816    -0.0433 H       
  40 H40            4.4518    -0.1075    -0.0435 H       
@<TRIPOS>BOND
   1    1    2 ar
   2    1    6 ar
   3    1    9 1
   4    2    3 ar
   5    2    7 1
   6    3    4 ar
   7    3   22 1
   8    4    5 ar
   9    4   21 1
  10    5    6 ar
  11    5   23 1
  12    6   24 1
  13    7    8 1
  14    8    9 2
  15    8   10 1
  16    9   25 1
  17   10   11 2
  18   10   12 am
  19   12   15 1
  20   12   26 1
  21   13   14 1
  22   13   18 1
  23   13   19 1
  24   14   15 1
  25   14   27 1
  26   14   28 1
  27   15   16 1
  28   15   29 1
  29   16   17 1
  30   16   20 1
  31   16   30 1
  32   17   18 1
  33   17   31 1
  34   17   32 1
  35   18   33 1
  36   18   34 1
  37   19   20 1
  38   19   35 1
  39   19   36 1
  40   20   37 1
  41   20   38 1
  42   21   39 1
  43   21   40 1

#	End of record

