#	Name: ASD03090527
#	Creating user name:	WinNT
#	Creation time:	15. 06. 2019 20:29

#	Modifying user name:	WinNT
#	Modification time:	15. 06. 2019 20:29

#	Program:	/corina/corina34_cracker 3.40 0067  02.08.2006

@<TRIPOS>MOLECULE
ASD03090527
  40   43    0    0    0
SMALL
NO_CHARGES


@<TRIPOS>ATOM
   1 C1            -0.0465     1.4850     0.2239 C.2     
   2 C2            -0.0457    -0.0219     0.2059 C.3     
   3 O3             0.9869     2.0897     0.4175 O.2     
   4 N4            -1.1946     2.1607     0.0195 N.am    
   5 N5             5.1263    -1.9111     1.3929 N.pl3   
   6 C6             5.0419    -1.9836     2.7567 C.2     
   7 C7             3.8243    -1.5892     3.1615 C.2     
   8 C8             3.0669    -1.2353     1.9585 C.ar    
   9 C9             1.7714    -0.7674     1.7299 C.ar    
  10 C10            1.3529    -0.5264     0.4519 C.ar    
  11 C11            2.2056    -0.7430    -0.6221 C.ar    
  12 C12            3.4875    -1.2047    -0.4193 C.ar    
  13 C13            3.9347    -1.4568     0.8738 C.ar    
  14 C14           -1.2153     3.5552     0.1328 C.ar    
  15 C15           -0.1181     4.3028    -0.2744 C.ar    
  16 C16           -0.1417     5.6791    -0.1612 C.ar    
  17 C17           -1.2563     6.3127     0.3569 C.ar    
  18 C18           -2.3503     5.5711     0.7636 C.ar    
  19 C19           -2.3354     4.1950     0.6473 C.ar    
  20 C20           -1.2786     7.8146     0.4789 C.3     
  21 C21           -2.3704     8.5691    -0.2823 C.3     
  22 C22           -2.4466     8.4442     1.2406 C.3     
  23 H23           -0.7090    -0.3950     0.9862 H       
  24 H24           -0.3933    -0.3738    -0.7654 H       
  25 H25           -2.0065     1.6803    -0.2062 H       
  26 H26            5.9101    -2.1415     0.8701 H       
  27 H27            5.8371    -2.3100     3.4106 H       
  28 H28            3.4701    -1.5419     4.1807 H       
  29 H29            1.1022    -0.5974     2.5604 H       
  30 H30            1.8604    -0.5479    -1.6266 H       
  31 H31            4.1432    -1.3705    -1.2613 H       
  32 H32            0.7528     3.8085    -0.6788 H       
  33 H33            0.7114     6.2610    -0.4773 H       
  34 H34           -3.2191     6.0689     1.1681 H       
  35 H35           -3.1920     3.6167     0.9607 H       
  36 H36           -0.3034     8.2937     0.5667 H       
  37 H37           -2.1137     9.5447    -0.6951 H       
  38 H38           -3.0726     7.9792    -0.8715 H       
  39 H39           -3.1989     7.7721     1.6535 H       
  40 H40           -2.2400     9.3376     1.8299 H       
@<TRIPOS>BOND
   1    1    2 1
   2    1    3 2
   3    1    4 am
   4    2   10 1
   5    2   23 1
   6    2   24 1
   7    4   14 1
   8    4   25 1
   9    5    6 1
  10    5   13 1
  11    5   26 1
  12    6    7 2
  13    6   27 1
  14    7    8 1
  15    7   28 1
  16    8    9 ar
  17    8   13 ar
  18    9   10 ar
  19    9   29 1
  20   10   11 ar
  21   11   12 ar
  22   11   30 1
  23   12   13 ar
  24   12   31 1
  25   14   15 ar
  26   14   19 ar
  27   15   16 ar
  28   15   32 1
  29   16   17 ar
  30   16   33 1
  31   17   18 ar
  32   17   20 1
  33   18   19 ar
  34   18   34 1
  35   19   35 1
  36   20   21 1
  37   20   22 1
  38   20   36 1
  39   21   22 1
  40   21   37 1
  41   21   38 1
  42   22   39 1
  43   22   40 1

#	End of record

