#	Name: ASD01916147
#	Creating user name:	WinNT
#	Creation time:	15. 06. 2019 20:06

#	Modifying user name:	WinNT
#	Modification time:	15. 06. 2019 20:06

#	Program:	/corina/corina34_cracker 3.40 0067  02.08.2006

@<TRIPOS>MOLECULE
ASD01916147
  45   48    0    0    0
SMALL
NO_CHARGES


@<TRIPOS>ATOM
   1 C1             0.0829     1.3907    -0.0626 C.ar    
   2 C2             0.0874     0.0093    -0.0619 C.ar    
   3 C3             1.2918    -0.6793    -0.0592 C.ar    
   4 C4             2.4890     0.0218    -0.0574 C.ar    
   5 C5             2.4791     1.4032    -0.0581 C.ar    
   6 C6             1.2774     2.0871    -0.0607 C.ar    
   7 O7             1.2989    -2.0383    -0.0580 O.3     
   8 C8             2.5755    -2.6804    -0.0553 C.3     
   9 C9             2.3858    -4.1754    -0.0544 C.2     
  10 C10            1.1565    -4.8468    -0.0558 C.2     
  11 N11            3.3423    -5.0706    -0.0577 N.2     
  12 N12            2.7534    -6.3379    -0.0598 N.pl3   
  13 C13            1.4109    -6.1690    -0.0536 C.2     
  14 C14            3.4356    -7.6349    -0.0763 C.3     
  15 C15            2.4618    -8.7239     0.3868 C.3     
  16 N16            1.1726    -8.5441    -0.2980 N.am    
  17 C17            0.4161    -7.3054    -0.0398 C.3     
  18 C18            0.6971    -9.4825    -1.1404 C.2     
  19 C19           -0.6571    -9.3421    -1.7144 C.ar    
  20 O20            1.3824   -10.4446    -1.4280 O.2     
  21 C21           -1.6801    -8.7756    -0.9573 C.ar    
  22 C22           -3.1987    -9.0863    -2.8119 C.ar    
  23 C23           -2.1742    -9.6425    -3.5592 C.ar    
  24 C24           -0.9119    -9.7723    -3.0201 C.ar    
  25 C25           -2.9549    -8.6463    -1.5052 C.ar    
  26 F26           -4.4333    -8.9626    -3.3463 F       
  27 C27           -4.0125    -8.0655    -0.7339 C.1     
  28 N28           -4.8515    -7.6049    -0.1220 N.1     
  29 H29           -0.8544     1.9272    -0.0692 H       
  30 H30           -0.8458    -0.5342    -0.0629 H       
  31 H31            3.4278    -0.5120    -0.0550 H       
  32 H32            3.4108     1.9494    -0.0563 H       
  33 H33            1.2718     3.1671    -0.0613 H       
  34 H34            3.1324    -2.3854    -0.9447 H       
  35 H35            3.1295    -2.3839     0.8353 H       
  36 H36            0.1795    -4.3864    -0.0583 H       
  37 H37            3.7736    -7.8555    -1.0889 H       
  38 H38            4.2932    -7.6036     0.5957 H       
  39 H39            2.8699    -9.7048     0.1430 H       
  40 H40            2.3155    -8.6472     1.4642 H       
  41 H41           -0.0671    -7.3613     0.9356 H       
  42 H42           -0.3320    -7.1574    -0.8186 H       
  43 H43           -1.4861    -8.4383     0.0502 H       
  44 H44           -2.3648    -9.9763    -4.5685 H       
  45 H45           -0.1174   -10.2074    -3.6082 H       
@<TRIPOS>BOND
   1    1    2 ar
   2    1    6 ar
   3    1   29 1
   4    2    3 ar
   5    2   30 1
   6    3    4 ar
   7    3    7 1
   8    4    5 ar
   9    4   31 1
  10    5    6 ar
  11    5   32 1
  12    6   33 1
  13    7    8 1
  14    8    9 1
  15    8   34 1
  16    8   35 1
  17    9   10 1
  18    9   11 2
  19   10   13 2
  20   10   36 1
  21   11   12 1
  22   12   13 1
  23   12   14 1
  24   13   17 1
  25   14   15 1
  26   14   37 1
  27   14   38 1
  28   15   16 1
  29   15   39 1
  30   15   40 1
  31   16   17 1
  32   16   18 am
  33   17   41 1
  34   17   42 1
  35   18   19 1
  36   18   20 2
  37   19   21 ar
  38   19   24 ar
  39   21   25 ar
  40   21   43 1
  41   22   23 ar
  42   22   26 1
  43   22   25 ar
  44   23   24 ar
  45   23   44 1
  46   24   45 1
  47   25   27 1
  48   27   28 3

#	End of record

