#	Name: ASD08830136
#	Creating user name:	WinNT
#	Creation time:	15. 06. 2019 21:19

#	Modifying user name:	WinNT
#	Modification time:	15. 06. 2019 21:19

#	Program:	/corina/corina34_cracker 3.40 0067  02.08.2006

@<TRIPOS>MOLECULE
ASD08830136
  40   41    0    0    0
SMALL
NO_CHARGES


@<TRIPOS>ATOM
   1 C1            -0.0195     1.4799     0.2505 C.ar    
   2 C2            -0.0048     0.0268     0.4842 C.2     
   3 C3            -1.2977    -0.7474     0.4976 C.3     
   4 C4            -1.0041    -2.2260     0.7592 C.3     
   5 N5            -2.2644    -2.9806     0.7723 N.3     
   6 O6             1.0476    -0.5474     0.6660 O.2     
   7 C7             1.1776     2.2005     0.2375 C.ar    
   8 C8            -0.0562     4.2190    -0.1902 C.ar    
   9 C9            -1.2412     3.5059    -0.1838 C.ar    
  10 C10           -2.0112    -4.4288     0.7833 C.3     
  11 C11           -3.3464    -5.1742     0.8570 C.3     
  12 O12           -4.1698    -4.7769    -0.2428 O.3     
  13 C13           -4.4371    -3.3725    -0.2840 C.3     
  14 C14           -3.1129    -2.6088    -0.3693 C.3     
  15 C15            1.1544     3.5683     0.0168 C.ar    
  16 C16           -1.2315     2.1443     0.0348 C.ar    
  17 N17            2.3505     4.2950     0.0027 N.am    
  18 C18            3.4696     3.7410    -0.5043 C.2     
  19 C19            4.7309     4.5582    -0.6161 C.3     
  20 O20            3.4617     2.5848    -0.8706 O.2     
  21 H21           -1.9447    -0.3606     1.2849 H       
  22 H22           -1.7950    -0.6408    -0.4665 H       
  23 H23           -0.3571    -2.6128    -0.0281 H       
  24 H24           -0.5068    -2.3326     1.7233 H       
  25 H25            2.1173     1.6935     0.3993 H       
  26 H26           -0.0712     5.2852    -0.3620 H       
  27 H27           -2.1782     4.0182    -0.3454 H       
  28 H28           -1.4853    -4.7133    -0.1280 H       
  29 H29           -1.4028    -4.6853     1.6506 H       
  30 H30           -3.1669    -6.2482     0.8079 H       
  31 H31           -3.8479    -4.9309     1.7937 H       
  32 H32           -5.0463    -3.1435    -1.1584 H       
  33 H33           -4.9703    -3.0768     0.6195 H       
  34 H34           -3.3087    -1.5369    -0.3434 H       
  35 H35           -2.6046    -2.8643    -1.2990 H       
  36 H36           -2.1591     1.5911     0.0386 H       
  37 H37            2.3739     5.1973     0.3579 H       
  38 H38            4.5462     5.5647    -0.2406 H       
  39 H39            5.5203     4.0902    -0.0280 H       
  40 H40            5.0384     4.6107    -1.6605 H       
@<TRIPOS>BOND
   1    1    2 1
   2    1    7 ar
   3    1   16 ar
   4    2    3 1
   5    2    6 2
   6    3    4 1
   7    3   21 1
   8    3   22 1
   9    4    5 1
  10    4   23 1
  11    4   24 1
  12    5   10 1
  13    5   14 1
  14    7   15 ar
  15    7   25 1
  16    8    9 ar
  17    8   15 ar
  18    8   26 1
  19    9   16 ar
  20    9   27 1
  21   10   11 1
  22   10   28 1
  23   10   29 1
  24   11   12 1
  25   11   30 1
  26   11   31 1
  27   12   13 1
  28   13   14 1
  29   13   32 1
  30   13   33 1
  31   14   34 1
  32   14   35 1
  33   15   17 1
  34   16   36 1
  35   17   18 am
  36   17   37 1
  37   18   19 1
  38   18   20 2
  39   19   38 1
  40   19   39 1
  41   19   40 1

#	End of record

