#	Name: ASD01940428
#	Creating user name:	WinNT
#	Creation time:	15. 06. 2019 20:12

#	Modifying user name:	WinNT
#	Modification time:	15. 06. 2019 20:12

#	Program:	/corina/corina34_cracker 3.40 0067  02.08.2006

@<TRIPOS>MOLECULE
ASD01940428
  49   51    0    0    0
SMALL
NO_CHARGES


@<TRIPOS>ATOM
   1 C1            -0.9347     1.7693    -1.1856 C.ar    
   2 C2            -1.0061     0.4226    -1.5324 C.ar    
   3 C3             0.1543    -0.2606    -1.8517 C.ar    
   4 C4             1.3809     0.3934    -1.8256 C.ar    
   5 C5             1.4578     1.7284    -1.4820 C.ar    
   6 C6             0.3054     2.4266    -1.1607 C.ar    
   7 O7             0.3477     3.7365    -0.8196 O.3     
   8 C8            -0.7683     4.4106    -0.5075 C.2     
   9 N9            -1.9865     3.8453    -0.5107 N.am    
  10 C10           -2.1416     2.5409    -0.8309 C.2     
  11 C11           -3.1592     4.6490    -0.1570 C.3     
  12 C12           -3.7253     5.2856    -1.4001 C.ar    
  13 C13           -3.4399     6.6076    -1.6909 C.ar    
  14 C14           -3.9571     7.1954    -2.8301 C.ar    
  15 C15           -4.7617     6.4643    -3.6833 C.ar    
  16 C16           -5.0506     5.1376    -3.3962 C.ar    
  17 C17           -4.5247     4.5465    -2.2519 C.ar    
  18 O18           -3.2407     2.0214    -0.8312 O.2     
  19 O19           -0.6734     5.5844    -0.2083 O.2     
  20 N20           -5.8645     4.3953    -4.2577 N.am    
  21 S21           -5.7821     4.6429    -5.8930 S.o2    
  22 O22           -6.0644     6.0264    -6.0526 O.2     
  23 C23           -4.0535     4.2929    -6.3174 C.3     
  24 O24           -6.6406     3.6521    -6.4412 O.2     
  25 O25            0.0947    -1.5760    -2.1917 O.3     
  26 C26           -0.5026    -1.8791    -3.3600 C.2     
  27 O27           -0.8687    -0.9905    -4.1037 O.2     
  28 N28           -0.6945    -3.1679    -3.7044 N.am    
  29 C29           -1.3443    -3.4975    -4.9753 C.3     
  30 C30           -0.2532    -4.2391    -2.8078 C.3     
  31 F31           -4.7989     3.2538    -1.9709 F       
  32 H32           -1.9593    -0.0847    -1.5517 H       
  33 H33            2.2815    -0.1477    -2.0759 H       
  34 H34            2.4153     2.2277    -1.4638 H       
  35 H35           -3.9141     4.0088     0.2994 H       
  36 H36           -2.8673     5.4266     0.5488 H       
  37 H37           -2.8117     7.1819    -1.0261 H       
  38 H38           -3.7323     8.2279    -3.0535 H       
  39 H39           -5.1656     6.9252    -4.5726 H       
  40 H40           -6.4773     3.7353    -3.8974 H       
  41 H41           -3.8148     3.2637    -6.0491 H       
  42 H42           -3.9069     4.4326    -7.3884 H       
  43 H43           -3.4002     4.9720    -5.7695 H       
  44 H44           -0.5893    -3.5913    -5.7559 H       
  45 H45           -1.8819    -4.4404    -4.8747 H       
  46 H46           -2.0452    -2.7062    -5.2410 H       
  47 H47            0.2039    -3.8040    -1.9191 H       
  48 H48           -1.1110    -4.8449    -2.5157 H       
  49 H49            0.4759    -4.8657    -3.3216 H       
@<TRIPOS>BOND
   1    1    2 ar
   2    1    6 ar
   3    1   10 1
   4    2    3 ar
   5    2   32 1
   6    3    4 ar
   7    3   25 1
   8    4    5 ar
   9    4   33 1
  10    5    6 ar
  11    5   34 1
  12    6    7 1
  13    7    8 1
  14    8    9 am
  15    8   19 2
  16    9   10 am
  17    9   11 1
  18   10   18 2
  19   11   12 1
  20   11   35 1
  21   11   36 1
  22   12   13 ar
  23   12   17 ar
  24   13   14 ar
  25   13   37 1
  26   14   15 ar
  27   14   38 1
  28   15   16 ar
  29   15   39 1
  30   16   17 ar
  31   16   20 1
  32   17   31 1
  33   20   21 am
  34   20   40 1
  35   21   22 2
  36   21   23 1
  37   21   24 2
  38   23   41 1
  39   23   42 1
  40   23   43 1
  41   25   26 1
  42   26   27 2
  43   26   28 am
  44   28   29 1
  45   28   30 1
  46   29   44 1
  47   29   45 1
  48   29   46 1
  49   30   47 1
  50   30   48 1
  51   30   49 1

#	End of record

