#	Name: ASD07930832
#	Creating user name:	WinNT
#	Creation time:	15. 06. 2019 21:13

#	Modifying user name:	WinNT
#	Modification time:	15. 06. 2019 21:13

#	Program:	/corina/corina34_cracker 3.40 0067  02.08.2006

@<TRIPOS>MOLECULE
ASD07930832
  30   30    0    0    0
SMALL
NO_CHARGES


@<TRIPOS>ATOM
   1 C1            -0.0184     1.5028     0.0103 C.2     
   2 C2             0.0251     0.0012    -0.1093 C.3     
   3 O3            -1.2970    -0.4984    -0.3199 O.3     
   4 C4            -1.5753    -2.5461     0.9330 C.3     
   5 C5            -1.3678    -1.9200    -0.4474 C.3     
   6 C6            -2.5219    -2.2870    -1.3442 C.2     
   7 C7            -2.3056    -2.9557    -2.4497 C.2     
   8 C8             1.2271     2.2613     0.2327 C.ar    
   9 C9             2.2210     2.2840    -0.7516 C.ar    
  10 C10            3.3849     2.9964    -0.5367 C.ar    
  11 C11            3.5679     3.6868     0.6503 C.ar    
  12 C12            2.5855     3.6674     1.6293 C.ar    
  13 C13            1.4164     2.9645     1.4243 C.ar    
  14 F14            4.7083     4.3815     0.8554 F       
  15 F15            2.0431     1.6105    -1.9091 F       
  16 Br16           2.8462     4.6130     3.2460 Br      
  17 N17           -1.1475     2.1271    -0.0874 N.2     
  18 O18           -1.1759     3.5428    -0.0892 O.3     
  19 H19            0.6576    -0.2780    -0.9520 H       
  20 H20            0.4327    -0.4247     0.8076 H       
  21 H21           -1.6293    -3.6304     0.8358 H       
  22 H22           -0.7405    -2.2806     1.5817 H       
  23 H23           -2.5040    -2.1734     1.3652 H       
  24 H24           -0.4391    -2.2927    -0.8796 H       
  25 H25           -3.5275    -1.9988    -1.0755 H       
  26 H26           -3.1327    -3.2188    -3.0924 H       
  27 H27           -1.3000    -3.2440    -2.7184 H       
  28 H28            4.1535     3.0148    -1.2951 H       
  29 H29            0.6507     2.9543     2.1858 H       
  30 H30           -2.0636     3.9184    -0.1661 H       
@<TRIPOS>BOND
   1    1    2 1
   2    1    8 1
   3    1   17 2
   4    2    3 1
   5    2   19 1
   6    2   20 1
   7    3    5 1
   8    4    5 1
   9    4   21 1
  10    4   22 1
  11    4   23 1
  12    5    6 1
  13    5   24 1
  14    6    7 2
  15    6   25 1
  16    7   26 1
  17    7   27 1
  18    8    9 ar
  19    8   13 ar
  20    9   10 ar
  21    9   15 1
  22   10   11 ar
  23   10   28 1
  24   11   12 ar
  25   11   14 1
  26   12   13 ar
  27   12   16 1
  28   13   29 1
  29   17   18 1
  30   18   30 1

#	End of record

