#	Name: ASD01180299
#	Creating user name:	WinNT
#	Creation time:	15. 06. 2019 19:07

#	Modifying user name:	WinNT
#	Modification time:	15. 06. 2019 19:07

#	Program:	/corina/corina34_cracker 3.40 0067  02.08.2006

@<TRIPOS>MOLECULE
ASD01180299
  67   69    0    0    0
SMALL
NO_CHARGES


@<TRIPOS>ATOM
   1 C1             1.0975     2.0428     0.0154 C.2     
   2 C2             0.9690     0.5417     0.0519 C.3     
   3 C3             2.3591    -0.0914    -0.0356 C.3     
   4 O4             2.1889     2.5538    -0.0716 O.2     
   5 O5            -0.0010     2.8120     0.0741 O.3     
   6 C6             3.3368    -2.3231    -0.0647 C.2     
   7 C7             3.2111    -3.7927    -0.0290 C.ar    
   8 C8             4.3526    -4.6066    -0.0955 C.ar    
   9 C9             4.1889    -5.9648    -0.0592 C.ar    
  10 C10            2.9043    -6.4964     0.0419 C.ar    
  11 N11            1.8421    -5.7049     0.1028 N.ar    
  12 C12            1.9558    -4.3933     0.0771 C.ar    
  13 O13            4.4352    -1.8088    -0.1523 O.2     
  14 N14            2.2343    -1.5506    -0.0002 N.am    
  15 N15            2.7349    -7.8701     0.0789 N.pl3   
  16 C16            3.8875    -8.7555    -0.1054 C.3     
  17 C17            4.5745    -8.9856     1.2422 C.3     
  18 C18            5.8415    -9.8173     1.0332 C.3     
  19 C19            6.8526    -9.0101     0.2164 C.3     
  20 C20            2.5689   -12.5012    -1.6900 C.ar    
  21 C21            3.7492   -11.9226    -2.1528 C.ar    
  22 C22            4.1700   -10.7134    -1.6380 C.ar    
  23 C23            3.4225   -10.0756    -0.6642 C.ar    
  24 C24            2.2504   -10.6452    -0.2012 C.ar    
  25 C25            1.8200   -11.8544    -0.7092 C.ar    
  26 C26            2.1081   -13.7983    -2.2442 C.ar    
  27 C27            1.7474   -14.8362    -1.3873 C.ar    
  28 C28            1.3196   -16.0406    -1.9082 C.ar    
  29 C29            1.2491   -16.2185    -3.2782 C.ar    
  30 C30            1.6065   -15.1917    -4.1334 C.ar    
  31 C31            2.0293   -13.9809    -3.6233 C.ar    
  32 C32            0.7817   -17.5360    -3.8410 C.3     
  33 F33           -0.6069   -17.5054    -4.0081 F       
  34 F34            1.3955   -17.7585    -5.0783 F       
  35 F35            1.1227   -18.5671    -2.9591 F       
  36 C36            4.5648   -12.6165    -3.2132 C.3     
  37 C37            6.4496   -10.1706     2.3920 C.3     
  38 H38            0.4906     0.2405     0.9838 H       
  39 H39            0.3642     0.2082    -0.7913 H       
  40 H40            2.8375     0.2098    -0.9676 H       
  41 H41            2.9640     0.2421     0.8076 H       
  42 H42            0.1316     3.7694     0.0475 H       
  43 H43            5.3377    -4.1709    -0.1740 H       
  44 H44            5.0471    -6.6187    -0.1088 H       
  45 H45            1.0704    -3.7776     0.1339 H       
  46 H46            1.3581    -1.9609     0.0697 H       
  47 H47            1.8531    -8.2463     0.2269 H       
  48 H48            4.5918    -8.2955    -0.7985 H       
  49 H49            4.8392    -8.0249     1.6838 H       
  50 H50            3.8965    -9.5178     1.9094 H       
  51 H51            5.5908   -10.7333     0.4982 H       
  52 H52            7.1219    -8.1061     0.7627 H       
  53 H53            7.7455    -9.6116     0.0467 H       
  54 H54            6.4105    -8.7374    -0.7419 H       
  55 H55            5.0848   -10.2644    -1.9957 H       
  56 H56            1.6706   -10.1430     0.5591 H       
  57 H57            0.9044   -12.2982    -0.3472 H       
  58 H58            1.8027   -14.6985    -0.3176 H       
  59 H59            1.0397   -16.8457    -1.2450 H       
  60 H60            1.5499   -15.3361    -5.2022 H       
  61 H61            2.3032   -13.1782    -4.2919 H       
  62 H62            4.2330   -12.2896    -4.1986 H       
  63 H63            5.6178   -12.3669    -3.0830 H       
  64 H64            4.4334   -13.6950    -3.1249 H       
  65 H65            5.7293   -10.7457     2.9739 H       
  66 H66            7.3523   -10.7631     2.2432 H       
  67 H67            6.7003    -9.2547     2.9271 H       
@<TRIPOS>BOND
   1    1    2 1
   2    1    4 2
   3    1    5 1
   4    2    3 1
   5    2   38 1
   6    2   39 1
   7    3   14 1
   8    3   40 1
   9    3   41 1
  10    5   42 1
  11    6    7 1
  12    6   13 2
  13    6   14 am
  14    7    8 ar
  15    7   12 ar
  16    8    9 ar
  17    8   43 1
  18    9   10 ar
  19    9   44 1
  20   10   11 ar
  21   10   15 1
  22   11   12 ar
  23   12   45 1
  24   14   46 1
  25   15   16 1
  26   15   47 1
  27   16   17 1
  28   16   23 1
  29   16   48 1
  30   17   18 1
  31   17   49 1
  32   17   50 1
  33   18   19 1
  34   18   37 1
  35   18   51 1
  36   19   52 1
  37   19   53 1
  38   19   54 1
  39   20   21 ar
  40   20   25 ar
  41   20   26 1
  42   21   22 ar
  43   21   36 1
  44   22   23 ar
  45   22   55 1
  46   23   24 ar
  47   24   25 ar
  48   24   56 1
  49   25   57 1
  50   26   27 ar
  51   26   31 ar
  52   27   28 ar
  53   27   58 1
  54   28   29 ar
  55   28   59 1
  56   29   30 ar
  57   29   32 1
  58   30   31 ar
  59   30   60 1
  60   31   61 1
  61   32   33 1
  62   32   34 1
  63   32   35 1
  64   36   62 1
  65   36   63 1
  66   36   64 1
  67   37   65 1
  68   37   66 1
  69   37   67 1

#	End of record

