#	Name: ASD05263001
#	Creating user name:	WinNT
#	Creation time:	15. 06. 2019 20:58

#	Modifying user name:	WinNT
#	Modification time:	15. 06. 2019 20:58

#	Program:	/corina/corina34_cracker 3.40 0067  02.08.2006

@<TRIPOS>MOLECULE
ASD05263001
  27   26    0    0    0
SMALL
NO_CHARGES


@<TRIPOS>ATOM
   1 C1            -0.0187     1.5258     0.0104 C.3     
   2 C2             0.0021    -0.0041     0.0020 C.3     
   3 C3            -1.4333    -0.5336     0.0129 C.3     
   4 C4            -1.4126    -2.0635     0.0045 C.3     
   5 C5            -2.8479    -2.5931     0.0153 C.3     
   6 C6            -2.8272    -4.1229     0.0069 C.3     
   7 C7            -4.2344    -4.6451     0.1414 C.2     
   8 C8            -4.7206    -5.4943    -0.7662 C.2     
   9 C9            -6.0864    -6.0011    -0.6357 C.2     
  10 O10           -6.5284    -6.7730    -1.4607 O.2     
  11 O11           -2.2631    -4.5849    -1.2221 O.3     
  12 H12            1.0039     1.9031     0.0027 H       
  13 H13           -0.5459     1.8868    -0.8726 H       
  14 H14           -0.5289     1.8773     0.9072 H       
  15 H15            0.5123    -0.3556    -0.8948 H       
  16 H16            0.5293    -0.3651     0.8851 H       
  17 H17           -1.9435    -0.1821     0.9097 H       
  18 H18           -1.9605    -0.1726    -0.8702 H       
  19 H19           -0.9024    -2.4150    -0.8923 H       
  20 H20           -0.8854    -2.4246     0.8875 H       
  21 H21           -3.3581    -2.2415     0.9121 H       
  22 H22           -3.3751    -2.2320    -0.8677 H       
  23 H23           -2.2249    -4.4827     0.8411 H       
  24 H24           -4.8494    -4.3322     0.9722 H       
  25 H25           -4.1056    -5.8072    -1.5970 H       
  26 H26           -6.7014    -5.6882     0.1951 H       
  27 H27           -2.7489    -4.3018    -2.0088 H       
@<TRIPOS>BOND
   1    1    2 1
   2    1   12 1
   3    1   13 1
   4    1   14 1
   5    2    3 1
   6    2   15 1
   7    2   16 1
   8    3    4 1
   9    3   17 1
  10    3   18 1
  11    4    5 1
  12    4   19 1
  13    4   20 1
  14    5    6 1
  15    5   21 1
  16    5   22 1
  17    6    7 1
  18    6   11 1
  19    6   23 1
  20    7    8 2
  21    7   24 1
  22    8    9 1
  23    8   25 1
  24    9   10 2
  25    9   26 1
  26   11   27 1

#	End of record

