#	Name: ASD01820118
#	Creating user name:	WinNT
#	Creation time:	15. 06. 2019 19:36

#	Modifying user name:	WinNT
#	Modification time:	15. 06. 2019 19:36

#	Program:	/corina/corina34_cracker 3.40 0067  02.08.2006

@<TRIPOS>MOLECULE
ASD01820118
  57   60    0    0    0
SMALL
NO_CHARGES


@<TRIPOS>ATOM
   1 C1            -0.0277     1.5399    -0.0114 C.3     
   2 C2            -0.0136     0.0100    -0.0011 C.3     
   3 C3            -1.4511    -0.5132     0.0255 C.3     
   4 N4            -2.1296    -0.1402    -1.2182 N.am    
   5 C5            -2.7095     1.0710    -1.3324 C.2     
   6 O6            -2.7589     1.8147    -0.3711 O.2     
   7 C7            -3.2829     1.4938    -2.6199 C.2     
   8 C8            -3.9762     2.6803    -2.7230 C.2     
   9 N9            -4.5130     3.0981    -3.8813 N.pl3   
  10 C10           -5.2008     4.3143    -3.8992 C.ar    
  11 N11           -4.5318     5.4426    -4.0701 N.ar    
  12 C12           -5.1407     6.6126    -4.0936 C.ar    
  13 C13           -6.5125     6.7018    -3.9391 C.ar    
  14 F14           -7.1259     7.9052    -3.9652 F       
  15 C15           -7.2529     5.5398    -3.7570 C.ar    
  16 C16           -6.5840     4.3264    -3.7428 C.ar    
  17 F17           -7.2642     3.1714    -3.5741 F       
  18 C18           -4.4142     2.3793    -5.0523 C.ar    
  19 N19           -4.9633     2.8388    -6.1696 N.ar    
  20 C20           -4.8824     2.1685    -7.3066 C.ar    
  21 C21           -4.2160     0.9455    -7.3849 C.ar    
  22 C22           -3.6312     0.4255    -6.2609 C.ar    
  23 C23           -3.7286     1.1517    -5.0692 C.ar    
  24 C24           -3.1208     0.6594    -3.8226 C.2     
  25 O25           -2.5126    -0.3962    -3.7860 O.2     
  26 N26           -5.4749     2.6938    -8.4487 N.am    
  27 C27           -6.0042     4.0586    -8.5541 C.3     
  28 C28           -6.1481     4.3291   -10.0682 C.3     
  29 H29           -7.0339     4.9298   -10.2746 H       
  30 O30           -4.9748     4.9568   -10.5893 O.3     
  31 C31           -6.3070     2.8975   -10.6305 C.3     
  32 C32           -5.6316     2.0190    -9.6007 C.2     
  33 O33           -5.2844     0.8721    -9.7865 O.2     
  34 C34           -1.4368    -2.0371     0.1615 C.3     
  35 F35           -0.7572    -2.5960    -0.9262 F       
  36 F36           -0.7889    -2.3932     1.3491 F       
  37 C37           -2.8743    -2.5602     0.1881 C.3     
  38 F38           -3.5223    -2.2041    -0.9996 F       
  39 F39           -2.8613    -3.9536     0.3124 F       
  40 F40           -3.5539    -2.0014     1.2757 F       
  41 H41            0.9964     1.9126    -0.0303 H       
  42 H42           -0.5591     1.8924    -0.8954 H       
  43 H43           -0.5306     1.9046     0.8843 H       
  44 H44            0.4893    -0.3548    -0.8968 H       
  45 H45            0.5178    -0.3425     0.8829 H       
  46 H46           -1.9806    -0.0778     0.8729 H       
  47 H47           -2.1615    -0.7650    -1.9595 H       
  48 H48           -4.0922     3.2950    -1.8426 H       
  49 H49           -4.5607     7.5125    -4.2350 H       
  50 H50           -8.3251     5.5813    -3.6339 H       
  51 H51           -4.1620     0.4135    -8.3232 H       
  52 H52           -3.1091    -0.5193    -6.2937 H       
  53 H53           -6.9761     4.1250    -8.0650 H       
  54 H54           -5.3076     4.7687    -8.1085 H       
  55 H55           -5.0180     5.1465   -11.5365 H       
  56 H56           -7.3618     2.6395   -10.7248 H       
  57 H57           -5.8039     2.8078   -11.5933 H       
@<TRIPOS>BOND
   1    1    2 1
   2    1   41 1
   3    1   42 1
   4    1   43 1
   5    2    3 1
   6    2   44 1
   7    2   45 1
   8    3    4 1
   9    3   34 1
  10    3   46 1
  11    4    5 am
  12    4   47 1
  13    5    6 2
  14    5    7 1
  15    7   24 1
  16    7    8 2
  17    8    9 1
  18    8   48 1
  19    9   10 1
  20    9   18 1
  21   10   16 ar
  22   10   11 ar
  23   11   12 ar
  24   12   13 ar
  25   12   49 1
  26   13   14 1
  27   13   15 ar
  28   15   16 ar
  29   15   50 1
  30   16   17 1
  31   18   23 ar
  32   18   19 ar
  33   19   20 ar
  34   20   21 ar
  35   20   26 1
  36   21   22 ar
  37   21   51 1
  38   22   23 ar
  39   22   52 1
  40   23   24 1
  41   24   25 2
  42   26   32 am
  43   26   27 1
  44   27   28 1
  45   27   53 1
  46   27   54 1
  47   28   29 1
  48   28   30 1
  49   28   31 1
  50   30   55 1
  51   31   32 1
  52   31   56 1
  53   31   57 1
  54   32   33 2
  55   34   35 1
  56   34   36 1
  57   34   37 1
  58   37   38 1
  59   37   39 1
  60   37   40 1

#	End of record

