#	Name: ASD01152519
#	Creating user name:	WinNT
#	Creation time:	15. 06. 2019 19:06

#	Modifying user name:	WinNT
#	Modification time:	15. 06. 2019 19:06

#	Program:	/corina/corina34_cracker 3.40 0067  02.08.2006

@<TRIPOS>MOLECULE
ASD01152519
  46   48    0    0    0
SMALL
NO_CHARGES


@<TRIPOS>ATOM
   1 C1             0.1165     1.1520    -0.7090 C.2     
   2 N2             0.0221    -0.1483    -0.6271 N.2     
   3 N3            -1.1176    -0.7676    -0.1145 N.am    
   4 C4            -2.2573    -0.0984     0.1263 C.2     
   5 C5            -2.3866     1.3536    -0.2698 C.3     
   6 C6            -1.0011     1.9717    -0.2166 C.2     
   7 C7            -2.9514     1.4554    -1.6881 C.3     
   8 O8            -0.8264     3.0958     0.2064 O.2     
   9 C9            -1.0724    -2.1395     0.1591 C.ar    
  10 O10           -3.1865    -0.6626     0.6636 O.2     
  11 C11           -3.1926     2.9031    -2.0300 C.ar    
  12 C12           -0.0093    -2.6698     0.8765 C.ar    
  13 C13           -2.0947    -2.9707    -0.2822 C.ar    
  14 C14           -2.0513    -4.3247    -0.0123 C.ar    
  15 C15           -0.9911    -4.8572     0.6980 C.ar    
  16 C16            0.0321    -4.0300     1.1463 C.ar    
  17 C17           -2.1593     3.6780    -2.5286 C.ar    
  18 C18           -4.4468     3.4558    -1.8513 C.ar    
  19 C19           -4.6690     4.7833    -2.1650 C.ar    
  20 C20           -3.6359     5.5608    -2.6581 C.ar    
  21 C21           -2.3817     5.0081    -2.8425 C.ar    
  22 Cl22          -3.9162     7.2281    -3.0525 Cl      
  23 Cl23          -0.9410    -6.5594     1.0355 Cl      
  24 F24           -0.9345     3.1369    -2.7082 F       
  25 O25            1.2264     1.7353    -1.2329 O.3     
  26 C26            2.2666     0.8643    -1.6816 C.3     
  27 N27            1.1024    -4.5686     1.8699 N.am    
  28 C28            1.7658    -3.8050     2.7606 C.2     
  29 O29            1.4963    -2.6275     2.8695 O.2     
  30 C30            2.8423    -4.4144     3.6214 C.3     
  31 H31           -3.0456     1.8694     0.4286 H       
  32 H32           -2.2390     1.0290    -2.3944 H       
  33 H33           -3.8918     0.9071    -1.7449 H       
  34 H34            0.7845    -2.0250     1.2237 H       
  35 H35           -2.9244    -2.5576    -0.8366 H       
  36 H36           -2.8471    -4.9687    -0.3564 H       
  37 H37           -5.2538     2.8498    -1.4665 H       
  38 H38           -5.6496     5.2140    -2.0256 H       
  39 H39           -1.5752     5.6146    -3.2273 H       
  40 H40            2.6200     0.2598    -0.8462 H       
  41 H41            1.8813     0.2115    -2.4650 H       
  42 H42            3.0920     1.4570    -2.0760 H       
  43 H43            1.3668    -5.4914     1.7302 H       
  44 H44            3.6289    -4.8211     2.9858 H       
  45 H45            3.2620    -3.6491     4.2743 H       
  46 H46            2.4146    -5.2137     4.2266 H       
@<TRIPOS>BOND
   1    1    2 2
   2    1   25 1
   3    1    6 1
   4    2    3 1
   5    3    4 am
   6    3    9 1
   7    4    5 1
   8    4   10 2
   9    5    6 1
  10    5    7 1
  11    5   31 1
  12    6    8 2
  13    7   11 1
  14    7   32 1
  15    7   33 1
  16    9   12 ar
  17    9   13 ar
  18   11   17 ar
  19   11   18 ar
  20   12   16 ar
  21   12   34 1
  22   13   14 ar
  23   13   35 1
  24   14   15 ar
  25   14   36 1
  26   15   16 ar
  27   15   23 1
  28   16   27 1
  29   17   24 1
  30   17   21 ar
  31   18   19 ar
  32   18   37 1
  33   19   20 ar
  34   19   38 1
  35   20   21 ar
  36   20   22 1
  37   21   39 1
  38   25   26 1
  39   26   40 1
  40   26   41 1
  41   26   42 1
  42   27   28 am
  43   27   43 1
  44   28   29 2
  45   28   30 1
  46   30   44 1
  47   30   45 1
  48   30   46 1

#	End of record

