#	Name: ASD05660007
#	Creating user name:	WinNT
#	Creation time:	15. 06. 2019 21:01

#	Modifying user name:	WinNT
#	Modification time:	15. 06. 2019 21:01

#	Program:	/corina/corina34_cracker 3.40 0067  02.08.2006

@<TRIPOS>MOLECULE
ASD05660007
  46   48    0    0    0
SMALL
NO_CHARGES


@<TRIPOS>ATOM
   1 C1             0.1497     0.8822     0.1549 C.3     
   2 O2            -0.0733    -0.4026     0.7936 O.3     
   3 C3            -1.3388    -0.8473     0.8425 C.2     
   4 C4            -1.6473    -2.1727     1.4901 C.3     
   5 O5            -2.2307    -0.1850     0.3673 O.2     
   6 C6            -3.1090    -2.6240     1.5141 C.3     
   7 C7            -2.1110    -3.3123     0.5807 C.3     
   8 C8            -3.5866    -3.4069     2.7388 C.3     
   9 C9            -4.1457    -1.6953     0.8787 C.3     
  10 C10           -2.2243    -3.0236    -0.8940 C.2     
  11 C11           -2.4519    -4.0027    -1.7392 C.2     
  12 Cl12          -2.6221    -5.6295    -1.1576 Cl      
  13 Cl13          -2.5824    -3.6702    -3.4381 Cl      
  14 C14            1.6191     1.2144     0.1943 C.ar    
  15 C15            2.4454     0.8166    -0.8409 C.ar    
  16 C16            3.7938     1.1197    -0.8078 C.ar    
  17 C17            4.3194     1.8213     0.2601 C.ar    
  18 C18            3.4926     2.2220     1.2996 C.ar    
  19 C19            2.1384     1.9209     1.2614 C.ar    
  20 O20            4.0070     2.9121     2.3511 O.3     
  21 C21            5.3131     3.2824     2.2934 C.ar    
  22 C22            5.6671     4.4944     1.7179 C.ar    
  23 C23            6.9956     4.8687     1.6609 C.ar    
  24 C24            7.9722     4.0369     2.1769 C.ar    
  25 C25            7.6222     2.8287     2.7510 C.ar    
  26 C26            6.2947     2.4520     2.8152 C.ar    
  27 H27           -0.1846     0.8355    -0.8815 H       
  28 H28           -0.4113     1.6529     0.6833 H       
  29 H29           -1.0260    -2.4331     2.3470 H       
  30 H30           -1.7947    -4.3229     0.8392 H       
  31 H31           -3.4590    -2.7964     3.6327 H       
  32 H32           -4.6399    -3.6609     2.6195 H       
  33 H33           -3.0012    -4.3212     2.8366 H       
  34 H34           -3.9063    -1.5502    -0.1747 H       
  35 H35           -5.1362    -2.1413     0.9681 H       
  36 H36           -4.1330    -0.7328     1.3901 H       
  37 H37           -2.1184    -2.0116    -1.2558 H       
  38 H38            2.0366     0.2678    -1.6764 H       
  39 H39            4.4370     0.8076    -1.6173 H       
  40 H40            5.3730     2.0572     0.2858 H       
  41 H41            1.4926     2.2316     2.0694 H       
  42 H42            4.9047     5.1443     1.3144 H       
  43 H43            7.2716     5.8118     1.2127 H       
  44 H44            9.0103     4.3313     2.1311 H       
  45 H45            8.3870     2.1807     3.1529 H       
  46 H46            6.0218     1.5082     3.2637 H       
@<TRIPOS>BOND
   1    1    2 1
   2    1   14 1
   3    1   27 1
   4    1   28 1
   5    2    3 1
   6    3    4 1
   7    3    5 2
   8    4    6 1
   9    4    7 1
  10    4   29 1
  11    6    7 1
  12    6    8 1
  13    6    9 1
  14    7   10 1
  15    7   30 1
  16    8   31 1
  17    8   32 1
  18    8   33 1
  19    9   34 1
  20    9   35 1
  21    9   36 1
  22   10   11 2
  23   10   37 1
  24   11   12 1
  25   11   13 1
  26   14   15 ar
  27   14   19 ar
  28   15   16 ar
  29   15   38 1
  30   16   17 ar
  31   16   39 1
  32   17   18 ar
  33   17   40 1
  34   18   19 ar
  35   18   20 1
  36   19   41 1
  37   20   21 1
  38   21   22 ar
  39   21   26 ar
  40   22   23 ar
  41   22   42 1
  42   23   24 ar
  43   23   43 1
  44   24   25 ar
  45   24   44 1
  46   25   26 ar
  47   25   45 1
  48   26   46 1

#	End of record

