#	Name: ASD01911142
#	Creating user name:	WinNT
#	Creation time:	15. 06. 2019 19:57

#	Modifying user name:	WinNT
#	Modification time:	15. 06. 2019 19:57

#	Program:	/corina/corina34_cracker 3.40 0067  02.08.2006

@<TRIPOS>MOLECULE
ASD01911142
  36   37    0    0    0
SMALL
NO_CHARGES


@<TRIPOS>ATOM
   1 C1            -0.0168     1.3845     0.0097 C.ar    
   2 C2             0.0021    -0.0041     0.0020 C.ar    
   3 C3            -1.1827    -0.7183     0.0100 C.ar    
   4 C4            -2.3923    -0.0566     0.0255 C.ar    
   5 C5            -2.4228     1.3424     0.0333 C.ar    
   6 C6            -1.2238     2.0614     0.0306 C.ar    
   7 C7            -3.7103     2.0531     0.0495 C.2     
   8 N8            -4.8296     1.3777     0.0566 N.2     
   9 N9            -5.9589     2.0011     0.0707 N.2     
  10 C10           -7.0783     1.3258     0.0778 C.2     
  11 C11           -8.3658     2.0364     0.0940 C.ar    
  12 C12           -8.3963     3.4355     0.1018 C.ar    
  13 C13           -9.5648     1.3174     0.0957 C.ar    
  14 C14          -10.7719     1.9943     0.1105 C.ar    
  15 C15          -10.7907     3.3829     0.1235 C.ar    
  16 C16           -9.6059     4.0971     0.1164 C.ar    
  17 O17            1.1513     2.0794     0.0022 O.3     
  18 C18            2.3597     1.3168    -0.0134 C.3     
  19 O19          -11.9399     1.2995     0.1118 O.3     
  20 C20          -13.1484     2.0621     0.1274 C.3     
  21 H21            0.9460    -0.5288    -0.0105 H       
  22 H22           -1.1601    -1.7980     0.0036 H       
  23 H23           -3.3152    -0.6175     0.0313 H       
  24 H24           -1.2394     3.1413     0.0369 H       
  25 H25           -3.7310     3.1328     0.0555 H       
  26 H26           -7.0575     0.2460     0.0718 H       
  27 H27           -7.4734     3.9963     0.0967 H       
  28 H28           -9.5491     0.2375     0.0853 H       
  29 H29          -11.7346     3.9076     0.1350 H       
  30 H30           -9.6284     5.1768     0.1270 H       
  31 H31            2.4012     0.6836     0.8728 H       
  32 H32            2.3842     0.6931    -0.9070 H       
  33 H33            3.2154     1.9920    -0.0179 H       
  34 H34          -13.1753     2.6820     1.0236 H       
  35 H35          -13.1875     2.6991    -0.7563 H       
  36 H36          -14.0041     1.3869     0.1268 H       
@<TRIPOS>BOND
   1    1    2 ar
   2    1   17 1
   3    1    6 ar
   4    2    3 ar
   5    2   21 1
   6    3    4 ar
   7    3   22 1
   8    4    5 ar
   9    4   23 1
  10    5    6 ar
  11    5    7 1
  12    6   24 1
  13    7    8 2
  14    7   25 1
  15    8    9 1
  16    9   10 2
  17   10   11 1
  18   10   26 1
  19   11   12 ar
  20   11   13 ar
  21   12   16 ar
  22   12   27 1
  23   13   14 ar
  24   13   28 1
  25   14   15 ar
  26   14   19 1
  27   15   16 ar
  28   15   29 1
  29   16   30 1
  30   17   18 1
  31   18   31 1
  32   18   32 1
  33   18   33 1
  34   19   20 1
  35   20   34 1
  36   20   35 1
  37   20   36 1

#	End of record

