#	Name: ASD09720050
#	Creating user name:	WinNT
#	Creation time:	15. 06. 2019 21:22

#	Modifying user name:	WinNT
#	Modification time:	15. 06. 2019 21:22

#	Program:	/corina/corina34_cracker 3.40 0067  02.08.2006

@<TRIPOS>MOLECULE
ASD09720050
  33   34    0    0    0
SMALL
NO_CHARGES


@<TRIPOS>ATOM
   1 C1            -0.0155     1.4719     0.0365 C.ar    
   2 C2             0.0021    -0.0041     0.0020 C.2     
   3 N3             1.1255    -0.6349    -0.1097 N.2     
   4 C4            -1.2891    -0.7754     0.0970 C.3     
   5 O5             2.3238     0.0866    -0.3304 O.3     
   6 S6            -0.9376    -2.5537     0.0267 S.3     
   7 C7            -2.5385    -3.2793     0.1496 C.ar    
   8 C8            -2.6800    -4.6617     0.1310 C.ar    
   9 C9            -3.9362    -5.2268     0.2275 C.ar    
  10 C10           -5.0529    -4.4188     0.3421 C.ar    
  11 C11           -4.9159    -3.0427     0.3605 C.ar    
  12 C12           -3.6623    -2.4707     0.2711 C.ar    
  13 C13           -1.0900     2.1732    -0.5131 C.ar    
  14 C14           -1.1003     3.5525    -0.4770 C.ar    
  15 C15           -0.0490     4.2402     0.1021 C.ar    
  16 C16            1.0193     3.5512     0.6488 C.ar    
  17 C17            1.0398     2.1722     0.6243 C.ar    
  18 H18            1.8370     4.0943     1.0992 H       
  19 C19           -2.2592     4.3114    -1.0704 C.3     
  20 F20           -3.2368     4.5112    -0.0898 F       
  21 F21           -1.8125     5.5502    -1.5427 F       
  22 F22           -2.8041     3.5775    -2.1294 F       
  23 H23           -1.7845    -0.5400     1.0389 H       
  24 H24           -1.9386    -0.5003    -0.7340 H       
  25 H25            3.1111    -0.4705    -0.4004 H       
  26 H26           -1.8086    -5.2932     0.0408 H       
  27 H27           -4.0470    -6.3010     0.2131 H       
  28 H28           -6.0342    -4.8636     0.4171 H       
  29 H29           -5.7901    -2.4149     0.4498 H       
  30 H30           -3.5561    -1.3960     0.2855 H       
  31 H31           -1.9112     1.6375    -0.9659 H       
  32 H32           -0.0618     5.3199     0.1274 H       
  33 H33            1.8741     1.6357     1.0514 H       
@<TRIPOS>BOND
   1    1    2 1
   2    1   13 ar
   3    1   17 ar
   4    2    3 2
   5    2    4 1
   6    3    5 1
   7    4    6 1
   8    4   23 1
   9    4   24 1
  10    5   25 1
  11    6    7 1
  12    7    8 ar
  13    7   12 ar
  14    8    9 ar
  15    8   26 1
  16    9   10 ar
  17    9   27 1
  18   10   11 ar
  19   10   28 1
  20   11   12 ar
  21   11   29 1
  22   12   30 1
  23   13   14 ar
  24   13   31 1
  25   14   15 ar
  26   14   19 1
  27   15   16 ar
  28   15   32 1
  29   16   17 ar
  30   16   18 1
  31   17   33 1
  32   19   20 1
  33   19   21 1
  34   19   22 1

#	End of record

