#	Name: ASD03331529
#	Creating user name:	WinNT
#	Creation time:	15. 06. 2019 20:39

#	Modifying user name:	WinNT
#	Modification time:	15. 06. 2019 20:39

#	Program:	/corina/corina34_cracker 3.40 0067  02.08.2006

@<TRIPOS>MOLECULE
ASD03331529
  58   60    0    0    0
SMALL
NO_CHARGES


@<TRIPOS>ATOM
   1 C1             2.2878     0.8167    -2.6454 C.ar    
   2 C2             2.3043    -0.4994    -2.2331 C.ar    
   3 C3             1.1052    -1.1580    -1.9582 C.ar    
   4 C4            -0.1062    -0.4811    -2.1018 C.ar    
   5 C5            -0.1128     0.8369    -2.5152 C.ar    
   6 C6             1.0832     1.4862    -2.7871 C.ar    
   7 C7             1.1184    -2.5696    -1.5162 C.2     
   8 N8             2.1470    -3.4504    -1.6946 N.pl3   
   9 C9             1.7597    -4.6385    -1.1604 C.2     
  10 C10            0.5092    -4.4624    -0.6505 C.2     
  11 N11            0.1464    -3.1821    -0.8828 N.2     
  12 C12            3.4365    -3.1690    -2.3317 C.3     
  13 C13            3.9976    -4.4580    -2.9365 C.3     
  14 C14            4.8472    -5.1908    -1.8994 C.3     
  15 C15            3.9983    -5.5825    -0.6939 C.3     
  16 C16            2.5737    -5.9055    -1.1552 C.3     
  17 C17           -0.3011    -5.4842     0.0356 C.2     
  18 O18            0.1391    -6.6076     0.1885 O.2     
  19 N19           -1.5301    -5.1739     0.4937 N.am    
  20 F20            1.0727     2.7752    -3.1917 F       
  21 F21           -1.2846     1.4945    -2.6550 F       
  22 C22           -2.3791    -6.2157     1.0769 C.3     
  23 C23           -1.9790    -6.4420     2.5362 C.3     
  24 C24           -3.8211    -5.7828     1.0127 C.2     
  25 C25           -2.8360    -7.5605     3.1324 C.3     
  26 C26           -2.4978    -8.8843     2.4439 C.3     
  27 C27           -2.5510    -7.6777     4.6310 C.3     
  28 N28           -4.8049    -6.6926     1.1574 N.am    
  29 O29           -4.0964    -4.6157     0.8309 O.2     
  30 C30           -6.2036    -6.2927     0.9845 C.3     
  31 H31            3.2161     1.3278    -2.8539 H       
  32 H32            3.2443    -1.0198    -2.1236 H       
  33 H33           -1.0370    -0.9866    -1.8905 H       
  34 H34            3.2988    -2.4280    -3.1192 H       
  35 H35            4.1332    -2.7834    -1.5874 H       
  36 H36            3.1740    -5.1000    -3.2489 H       
  37 H37            4.6135    -4.2139    -3.8020 H       
  38 H38            5.2698    -6.0891    -2.3495 H       
  39 H39            5.6580    -4.5397    -1.5727 H       
  40 H40            4.4323    -6.4594    -0.2135 H       
  41 H41            3.9717    -4.7555     0.0157 H       
  42 H42            2.1235    -6.6253    -0.4715 H       
  43 H43            2.6023    -6.3246    -2.1610 H       
  44 H44           -1.8524    -4.2608     0.4373 H       
  45 H45           -2.2528    -7.1427     0.5175 H       
  46 H46           -0.9274    -6.7248     2.5850 H       
  47 H47           -2.1350    -5.5237     3.1023 H       
  48 H48           -3.8906    -7.3307     2.9800 H       
  49 H49           -3.1445    -9.6713     2.8319 H       
  50 H50           -2.6514    -8.7846     1.3694 H       
  51 H51           -1.4565    -9.1401     2.6399 H       
  52 H52           -2.7920    -6.7346     5.1215 H       
  53 H53           -3.1616    -8.4745     5.0558 H       
  54 H54           -1.4965    -7.9075     4.7835 H       
  55 H55           -4.5868    -7.6121     1.3760 H       
  56 H56           -6.4525    -5.5182     1.7099 H       
  57 H57           -6.3489    -5.9060    -0.0242 H       
  58 H58           -6.8502    -7.1565     1.1390 H       
@<TRIPOS>BOND
   1    1    2 ar
   2    1    6 ar
   3    1   31 1
   4    2    3 ar
   5    2   32 1
   6    3    4 ar
   7    3    7 1
   8    4    5 ar
   9    4   33 1
  10    5    6 ar
  11    5   21 1
  12    6   20 1
  13    7    8 1
  14    7   11 2
  15    8    9 1
  16    8   12 1
  17    9   10 2
  18    9   16 1
  19   10   11 1
  20   10   17 1
  21   12   13 1
  22   12   34 1
  23   12   35 1
  24   13   14 1
  25   13   36 1
  26   13   37 1
  27   14   15 1
  28   14   38 1
  29   14   39 1
  30   15   16 1
  31   15   40 1
  32   15   41 1
  33   16   42 1
  34   16   43 1
  35   17   18 2
  36   17   19 am
  37   19   22 1
  38   19   44 1
  39   22   23 1
  40   22   24 1
  41   22   45 1
  42   23   25 1
  43   23   46 1
  44   23   47 1
  45   24   28 am
  46   24   29 2
  47   25   26 1
  48   25   27 1
  49   25   48 1
  50   26   49 1
  51   26   50 1
  52   26   51 1
  53   27   52 1
  54   27   53 1
  55   27   54 1
  56   28   30 1
  57   28   55 1
  58   30   56 1
  59   30   57 1
  60   30   58 1

#	End of record

