#	Name: ASD01812460
#	Creating user name:	WinNT
#	Creation time:	15. 06. 2019 19:28

#	Modifying user name:	WinNT
#	Modification time:	15. 06. 2019 19:28

#	Program:	/corina/corina34_cracker 3.40 0067  02.08.2006

@<TRIPOS>MOLECULE
ASD01812460
  64   68    0    0    0
SMALL
NO_CHARGES


@<TRIPOS>ATOM
   1 C1            -0.2243     1.1637     0.0962 C.ar    
   2 C2            -0.1209    -0.2264     0.0842 C.ar    
   3 C3             1.0954    -0.8372     0.0429 C.ar    
   4 C4             2.2629    -0.0584     0.0115 C.ar    
   5 C5             2.1610     1.3575     0.0231 C.ar    
   6 C6             0.8849     1.9506     0.0666 C.ar    
   7 C7             3.5378    -0.6536    -0.0310 C.ar    
   8 C8             4.6313     0.1630    -0.0595 C.ar    
   9 C9             4.4626     1.5555    -0.0460 C.ar    
  10 N10            3.2642     2.1046    -0.0065 N.ar    
  11 C11            5.6594     2.4304    -0.0768 C.2     
  12 O12            6.7701     1.9392    -0.1133 O.2     
  13 N13            5.5152     3.7703    -0.0644 N.am    
  14 C14            6.6976     4.6347    -0.0948 C.3     
  15 C15            3.6914    -2.1527    -0.0443 C.3     
  16 C16            7.1381     4.8427    -1.5269 C.2     
  17 C17            8.2157     5.8675    -1.8040 C.3     
  18 C18            7.8167     7.1871    -1.1350 C.3     
  19 C19            7.5467     6.9424     0.3505 C.3     
  20 C20            6.3537     5.9989     0.5122 C.3     
  21 C21            3.5760    -2.6570    -1.4597 C.ar    
  22 C22            4.6996    -2.7693    -2.2561 C.ar    
  23 N23            4.6065    -3.2098    -3.4957 N.ar    
  24 C24            3.4493    -3.5588    -4.0225 C.ar    
  25 C25            2.2827    -3.4738    -3.2858 C.ar    
  26 C26            2.3417    -3.0197    -1.9774 C.ar    
  27 C27            6.6005     4.1528    -2.5021 C.2     
  28 C28            3.3977    -4.0556    -5.4443 C.3     
  29 C29            2.3420    -5.1707    -5.5870 C.3     
  30 N30            1.3346    -4.6511    -6.5400 N.3     
  31 N31            2.0383    -3.6546    -7.3582 N.3     
  32 C32            2.9076    -2.9354    -6.3898 C.3     
  33 C33            0.7940    -5.7315    -7.3756 C.3     
  34 H34           -1.2011     1.6234     0.1250 H       
  35 H35           -1.0180    -0.8272     0.1083 H       
  36 H36            1.1615    -1.9151     0.0347 H       
  37 H37            0.7870     3.0261     0.0758 H       
  38 H38            5.6236    -0.2620    -0.0920 H       
  39 H39            4.6284     4.1624    -0.0352 H       
  40 H40            7.5046     4.1712     0.4728 H       
  41 H41            4.6678    -2.4214     0.3588 H       
  42 H42            2.9095    -2.6034     0.5669 H       
  43 H43            9.1644     5.5213    -1.3939 H       
  44 H44            8.3113     6.0166    -2.8796 H       
  45 H45            8.6263     7.9089    -1.2433 H       
  46 H46            6.9159     7.5770    -1.6089 H       
  47 H47            8.4278     6.4944     0.8099 H       
  48 H48            7.3271     7.8913     0.8399 H       
  49 H49            5.4875     6.4170    -0.0006 H       
  50 H50            6.1263     5.8786     1.5714 H       
  51 H51            5.6651    -2.4927    -1.8590 H       
  52 H52            1.3378    -3.7608    -3.7230 H       
  53 H53            1.4466    -2.9429    -1.3780 H       
  54 H54            5.8323     3.4243    -2.2886 H       
  55 H55            6.9254     4.3125    -3.5196 H       
  56 H56            4.3776    -4.4173    -5.7559 H       
  57 H57            2.8022    -6.0762    -5.9825 H       
  58 H58            1.8773    -5.3745    -4.6223 H       
  59 H59            2.5889    -4.1003    -8.0767 H       
  60 H60            2.3336    -2.1911    -5.8379 H       
  61 H61            3.7496    -2.4698    -6.9021 H       
  62 H62            0.3206    -6.4801    -6.7403 H       
  63 H63            0.0567    -5.3224    -8.0663 H       
  64 H64            1.6036    -6.1938    -7.9404 H       
@<TRIPOS>BOND
   1    1    2 ar
   2    1    6 ar
   3    1   34 1
   4    2    3 ar
   5    2   35 1
   6    3    4 ar
   7    3   36 1
   8    4    5 ar
   9    4    7 ar
  10    5    6 ar
  11    5   10 ar
  12    6   37 1
  13    7    8 ar
  14    7   15 1
  15    8    9 ar
  16    8   38 1
  17    9   10 ar
  18    9   11 1
  19   11   12 2
  20   11   13 am
  21   13   14 1
  22   13   39 1
  23   14   16 1
  24   14   20 1
  25   14   40 1
  26   15   21 1
  27   15   41 1
  28   15   42 1
  29   16   17 1
  30   16   27 2
  31   17   18 1
  32   17   43 1
  33   17   44 1
  34   18   19 1
  35   18   45 1
  36   18   46 1
  37   19   20 1
  38   19   47 1
  39   19   48 1
  40   20   49 1
  41   20   50 1
  42   21   22 ar
  43   21   26 ar
  44   22   23 ar
  45   22   51 1
  46   23   24 ar
  47   24   25 ar
  48   24   28 1
  49   25   26 ar
  50   25   52 1
  51   26   53 1
  52   27   54 1
  53   27   55 1
  54   28   29 1
  55   28   32 1
  56   28   56 1
  57   29   30 1
  58   29   57 1
  59   29   58 1
  60   30   31 1
  61   30   33 1
  62   31   32 1
  63   31   59 1
  64   32   60 1
  65   32   61 1
  66   33   62 1
  67   33   63 1
  68   33   64 1

#	End of record

