#	Name: ASD03731620
#	Creating user name:	WinNT
#	Creation time:	15. 06. 2019 20:46

#	Modifying user name:	WinNT
#	Modification time:	15. 06. 2019 20:46

#	Program:	/corina/corina34_cracker 3.40 0067  02.08.2006

@<TRIPOS>MOLECULE
ASD03731620
  36   37    0    0    0
SMALL
NO_CHARGES


@<TRIPOS>ATOM
   1 C1             0.3752     1.0940     1.9771 C.2     
   2 C2             0.2918    -0.2825     1.4508 C.ar    
   3 C3             1.3744    -0.8358     0.7616 C.ar    
   4 C4             1.2928    -2.1200     0.2722 C.ar    
   5 C5             0.1351    -2.8662     0.4624 C.ar    
   6 C6            -0.9438    -2.3194     1.1474 C.ar    
   7 C7            -0.8675    -1.0377     1.6453 C.ar    
   8 O8             1.3867     1.7480     1.8112 O.2     
   9 N9            -0.6719     1.6279     2.6366 N.am    
  10 S10           -0.5783     3.1722     3.2271 S.o2    
  11 O11           -1.8293     3.3784     3.8688 O.2     
  12 O12            0.6358     3.1922     3.9651 O.2     
  13 C13           -0.4418     4.2145     1.7487 C.3     
  14 C14            2.4596    -2.7177    -0.4711 C.3     
  15 O15            0.0580    -4.1313    -0.0222 O.3     
  16 C16           -1.1276    -4.7862     0.0893 C.ar    
  17 C17           -2.0816    -4.6707    -0.9116 C.ar    
  18 C18           -3.2868    -5.3376    -0.7962 C.ar    
  19 C19           -3.5417    -6.1204     0.3178 C.ar    
  20 C20           -2.5913    -6.2360     1.3160 C.ar    
  21 C21           -1.3832    -5.5754     1.2013 C.ar    
  22 Cl22          -5.0561    -6.9568     0.4614 Cl      
  23 Cl23          -4.4815    -5.1936    -2.0474 Cl      
  24 H24            2.2738    -0.2567     0.6128 H       
  25 H25           -1.8415    -2.9019     1.2928 H       
  26 H26           -1.7044    -0.6152     2.1816 H       
  27 H27           -1.4803     1.1075     2.7654 H       
  28 H28           -1.3213     4.0715     1.1209 H       
  29 H29           -0.3745     5.2608     2.0468 H       
  30 H30            0.4523     3.9376     1.1902 H       
  31 H31            3.1194    -3.2229     0.2342 H       
  32 H32            2.0936    -3.4360    -1.2047 H       
  33 H33            3.0097    -1.9264    -0.9804 H       
  34 H34           -1.8828    -4.0601    -1.7799 H       
  35 H35           -2.7919    -6.8468     2.1839 H       
  36 H36           -0.6397    -5.6701     1.9789 H       
@<TRIPOS>BOND
   1    1    2 1
   2    1    8 2
   3    1    9 am
   4    2    3 ar
   5    2    7 ar
   6    3    4 ar
   7    3   24 1
   8    4    5 ar
   9    4   14 1
  10    5    6 ar
  11    5   15 1
  12    6    7 ar
  13    6   25 1
  14    7   26 1
  15    9   10 am
  16    9   27 1
  17   10   11 2
  18   10   12 2
  19   10   13 1
  20   13   28 1
  21   13   29 1
  22   13   30 1
  23   14   31 1
  24   14   32 1
  25   14   33 1
  26   15   16 1
  27   16   17 ar
  28   16   21 ar
  29   17   18 ar
  30   17   34 1
  31   18   19 ar
  32   18   23 1
  33   19   20 ar
  34   19   22 1
  35   20   21 ar
  36   20   35 1
  37   21   36 1

#	End of record

