#	Name: ASD01420121
#	Creating user name:	WinNT
#	Creation time:	15. 06. 2019 19:20

#	Modifying user name:	WinNT
#	Modification time:	15. 06. 2019 19:20

#	Program:	/corina/corina34_cracker 3.40 0067  02.08.2006

@<TRIPOS>MOLECULE
ASD01420121
 104  110    0    0    0
SMALL
NO_CHARGES


@<TRIPOS>ATOM
   1 N1            -1.4112     2.7313    -2.6832 N.am    
   2 C2            -1.1596     1.3605    -2.2131 C.3     
   3 C3            -0.1430     0.7027    -3.1522 C.3     
   4 N4             1.0500     1.5542    -3.2510 N.3     
   5 C5             0.7268     2.8570    -3.8479 C.3     
   6 C6            -0.2542     3.6031    -2.9373 C.3     
   7 C7            -2.6684     3.1749    -2.8812 C.2     
   8 O8            -3.6124     2.4393    -2.6710 O.2     
   9 O9            -2.8782     4.4331    -3.3118 O.3     
  10 C10            2.0635     0.9142    -3.9658 C.ar    
  11 C11            3.2795     1.5558    -4.1713 C.ar    
  12 C12            4.2820     0.9254    -4.8771 C.ar    
  13 C13            4.0756    -0.3564    -5.3849 C.ar    
  14 C14            2.8554    -0.9980    -5.1777 C.ar    
  15 C15            1.8576    -0.3663    -4.4665 C.ar    
  16 C16            8.0656    -3.2185    -8.3611 C.3     
  17 N17            7.3277    -4.4569    -8.6287 N.am    
  18 C18            6.0059    -4.3072    -8.0122 C.3     
  19 C19            5.9545    -2.9477    -7.3616 C.ar    
  20 C20            4.9488    -2.3169    -6.6533 C.ar    
  21 C21            5.1527    -1.0365    -6.1450 C.ar    
  22 C22            6.3732    -0.3967    -6.3543 C.ar    
  23 C23            7.3698    -1.0347    -7.0622 C.ar    
  24 C24            7.1626    -2.3089    -7.5662 C.ar    
  25 C25            7.7783    -5.5280    -9.3115 C.2     
  26 C26            9.0940    -5.4800    -9.9730 C.ar    
  27 C27            9.9676    -6.5756    -9.8819 C.ar    
  28 C28           11.2042    -6.5302   -10.5037 C.ar    
  29 C29           11.5840    -5.4055   -11.2169 C.ar    
  30 C30           10.7167    -4.3058   -11.3129 C.ar    
  31 C31            9.4720    -4.3479   -10.6959 C.ar    
  32 O32            7.0988    -6.5343    -9.3816 O.2     
  33 C33           11.1243    -3.1071   -12.0740 C.2     
  34 C34           12.0128    -2.2665   -11.5612 C.2     
  35 C35           10.5306    -2.8393   -13.4330 C.3     
  36 O36           12.7966    -5.3663   -11.8236 O.3     
  37 C37           13.6290    -6.5195   -11.6849 C.3     
  38 C38           14.9255    -6.2945   -12.4196 C.ar    
  39 C39           16.0012    -5.7247   -11.7646 C.ar    
  40 C40           17.1904    -5.5183   -12.4385 C.ar    
  41 C41           17.3039    -5.8821   -13.7672 C.ar    
  42 C42           16.2285    -6.4527   -14.4220 C.ar    
  43 C43           15.0407    -6.6631   -13.7469 C.ar    
  44 O44            9.6002    -7.6791    -9.1841 O.3     
  45 C45           10.5378    -8.7562    -9.1328 C.3     
  46 C46            9.9604    -9.8865    -8.3204 C.ar    
  47 C47            9.2137   -10.8716    -8.9393 C.ar    
  48 C48            8.6840   -11.9083    -8.1941 C.ar    
  49 C49            8.9014   -11.9603    -6.8299 C.ar    
  50 C50            9.6489   -10.9758    -6.2111 C.ar    
  51 C51           10.1822    -9.9414    -6.9570 C.ar    
  52 C52           -4.2580     4.8428    -3.5032 C.3     
  53 C53           -5.0119     4.7313    -2.1765 C.3     
  54 C54           -4.2966     6.2924    -3.9914 C.3     
  55 C55           -4.9195     3.9366    -4.5434 C.3     
  56 H56           -0.7577     1.3887    -1.2003 H       
  57 H57           -2.0900     0.7927    -2.2252 H       
  58 H58            0.1386    -0.2734    -2.7573 H       
  59 H59           -0.5862     0.5815    -4.1407 H       
  60 H60            1.6391     3.4433    -3.9574 H       
  61 H61            0.2714     2.7058    -4.8266 H       
  62 H62           -0.5860     4.5180    -3.4281 H       
  63 H63            0.2347     3.8468    -1.9941 H       
  64 H64            3.4389     2.5490    -3.7781 H       
  65 H65            5.2264     1.4243    -5.0368 H       
  66 H66            2.6935    -1.9910    -5.5702 H       
  67 H67            0.9137    -0.8647    -4.3020 H       
  68 H68            8.9645    -3.4410    -7.7862 H       
  69 H69            8.3369    -2.7395    -9.3019 H       
  70 H70            5.2316    -4.3809    -8.7758 H       
  71 H71            5.8592    -5.0824    -7.2601 H       
  72 H72            4.0048    -2.8169    -6.4947 H       
  73 H73            6.5378     0.5965    -5.9632 H       
  74 H74            8.3157    -0.5394    -7.2246 H       
  75 H75           11.8744    -7.3740   -10.4318 H       
  76 H76            8.8011    -3.5050   -10.7720 H       
  77 H77           12.4384    -2.4584   -10.5873 H       
  78 H78           12.3109    -1.3901   -12.1176 H       
  79 H79            9.6277    -2.2386   -13.3230 H       
  80 H80           11.2533    -2.3003   -14.0454 H       
  81 H81           10.2812    -3.7855   -13.9133 H       
  82 H82           13.8354    -6.6938   -10.6289 H       
  83 H83           13.1200    -7.3875   -12.1037 H       
  84 H84           15.9125    -5.4405   -10.7264 H       
  85 H85           18.0306    -5.0725   -11.9269 H       
  86 H86           18.2328    -5.7201   -14.2940 H       
  87 H87           16.3171    -6.7366   -15.4602 H       
  88 H88           14.2016    -7.1123   -14.2574 H       
  89 H89           10.7460    -9.1052   -10.1443 H       
  90 H90           11.4624    -8.4114    -8.6699 H       
  91 H91            9.0439   -10.8309   -10.0051 H       
  92 H92            8.1001   -12.6775    -8.6775 H       
  93 H93            8.4870   -12.7700    -6.2475 H       
  94 H94            9.8184   -11.0163    -5.1452 H       
  95 H95           10.7692    -9.1742    -6.4741 H       
  96 H96           -4.5406     5.3769    -1.4355 H       
  97 H97           -6.0476     5.0389    -2.3202 H       
  98 H98           -4.9844     3.6987    -1.8287 H       
  99 H99           -3.7595     6.3718    -4.9366 H       
 100 H100          -5.3323     6.5999    -4.1351 H       
 101 H101          -3.8253     6.9380    -3.2504 H       
 102 H102          -4.8920     2.9039    -4.1956 H       
 103 H103          -5.9553     4.2442    -4.6871 H       
 104 H104          -4.3825     4.0160    -5.4886 H       
@<TRIPOS>BOND
   1    1    2 1
   2    1    6 1
   3    1    7 am
   4    2    3 1
   5    2   56 1
   6    2   57 1
   7    3    4 1
   8    3   58 1
   9    3   59 1
  10    4    5 1
  11    4   10 1
  12    5    6 1
  13    5   60 1
  14    5   61 1
  15    6   62 1
  16    6   63 1
  17    7    8 2
  18    7    9 1
  19    9   52 1
  20   10   11 ar
  21   10   15 ar
  22   11   12 ar
  23   11   64 1
  24   12   13 ar
  25   12   65 1
  26   13   14 ar
  27   13   21 1
  28   14   15 ar
  29   14   66 1
  30   15   67 1
  31   16   17 1
  32   16   24 1
  33   16   68 1
  34   16   69 1
  35   17   18 1
  36   17   25 am
  37   18   19 1
  38   18   70 1
  39   18   71 1
  40   19   20 ar
  41   19   24 ar
  42   20   21 ar
  43   20   72 1
  44   21   22 ar
  45   22   23 ar
  46   22   73 1
  47   23   24 ar
  48   23   74 1
  49   25   26 1
  50   25   32 2
  51   26   27 ar
  52   26   31 ar
  53   27   28 ar
  54   27   44 1
  55   28   29 ar
  56   28   75 1
  57   29   30 ar
  58   29   36 1
  59   30   31 ar
  60   30   33 1
  61   31   76 1
  62   33   34 2
  63   33   35 1
  64   34   77 1
  65   34   78 1
  66   35   79 1
  67   35   80 1
  68   35   81 1
  69   36   37 1
  70   37   38 1
  71   37   82 1
  72   37   83 1
  73   38   39 ar
  74   38   43 ar
  75   39   40 ar
  76   39   84 1
  77   40   41 ar
  78   40   85 1
  79   41   42 ar
  80   41   86 1
  81   42   43 ar
  82   42   87 1
  83   43   88 1
  84   44   45 1
  85   45   46 1
  86   45   89 1
  87   45   90 1
  88   46   47 ar
  89   46   51 ar
  90   47   48 ar
  91   47   91 1
  92   48   49 ar
  93   48   92 1
  94   49   50 ar
  95   49   93 1
  96   50   51 ar
  97   50   94 1
  98   51   95 1
  99   52   53 1
 100   52   55 1
 101   52   54 1
 102   53   96 1
 103   53   97 1
 104   53   98 1
 105   54   99 1
 106   54  100 1
 107   54  101 1
 108   55  102 1
 109   55  103 1
 110   55  104 1

#	End of record

