#	Name: ASD01901414
#	Creating user name:	WinNT
#	Creation time:	15. 06. 2019 19:53

#	Modifying user name:	WinNT
#	Modification time:	15. 06. 2019 19:53

#	Program:	/corina/corina34_cracker 3.40 0067  02.08.2006

@<TRIPOS>MOLECULE
ASD01901414
  40   43    0    0    0
SMALL
NO_CHARGES


@<TRIPOS>ATOM
   1 C1            -0.0168     1.3885     0.0097 C.ar    
   2 C2             1.1729     2.0930     0.0021 C.ar    
   3 C3             2.3808     1.4152    -0.0131 C.ar    
   4 C4             2.4029     0.0323    -0.0212 C.ar    
   5 C5             1.2208    -0.6798    -0.0137 C.ar    
   6 C6             0.0021    -0.0041     0.0020 C.ar    
   7 C7            -1.2716    -0.7660     0.0106 C.2     
   8 N8            -3.1802    -1.5357    -1.1466 N.2     
   9 C9            -2.0563    -0.8618    -1.1592 C.2     
  10 C10           -1.6985    -1.3895     1.1495 C.2     
  11 N11           -2.8729    -2.0814     1.1229 N.pl3   
  12 C12           -3.6094    -2.1466    -0.0320 C.2     
  13 C13           -3.5502    -2.7944     2.0752 C.2     
  14 C14           -4.6692    -3.2730     1.4912 C.2     
  15 N15           -4.6911    -2.8708     0.2170 N.2     
  16 C16           -5.7193    -4.1187     2.1643 C.3     
  17 O17           -5.3505    -4.3409     3.5269 O.3     
  18 C18           -6.1953    -5.0897     4.2794 C.ar    
  19 C19           -5.8941    -5.3359     5.6130 C.ar    
  20 N20           -7.3004    -5.5738     3.7378 N.ar    
  21 C21           -8.1493    -6.3063     4.4338 C.ar    
  22 C22           -7.9109    -6.5948     5.7626 C.ar    
  23 C23           -6.7643    -6.1008     6.3697 C.ar    
  24 C24           -1.3309     2.1258     0.0325 C.3     
  25 F25            1.1572     3.4439     0.0091 F       
  26 H26            3.3084     1.9683    -0.0190 H       
  27 H27            3.3473    -0.4914    -0.0337 H       
  28 H28            1.2401    -1.7596    -0.0204 H       
  29 H29           -1.7294    -0.3776    -2.0676 H       
  30 H30           -1.1144    -1.3352     2.0563 H       
  31 H31           -3.2464    -2.9457     3.1005 H       
  32 H32           -6.6793    -3.6037     2.1271 H       
  33 H33           -5.8002    -5.0758     1.6491 H       
  34 H34           -4.9926    -4.9359     6.0533 H       
  35 H35           -9.0420    -6.6845     3.9579 H       
  36 H36           -8.6111    -7.1946     6.3250 H       
  37 H37           -6.5560    -6.3090     7.4088 H       
  38 H38           -1.6330     2.2981     1.0655 H       
  39 H39           -1.2197     3.0825    -0.4779 H       
  40 H40           -2.0906     1.5301    -0.4737 H       
@<TRIPOS>BOND
   1    1    6 ar
   2    1    2 ar
   3    1   24 1
   4    2    3 ar
   5    2   25 1
   6    3    4 ar
   7    3   26 1
   8    4    5 ar
   9    4   27 1
  10    5    6 ar
  11    5   28 1
  12    6    7 1
  13    7   10 2
  14    7    9 1
  15    8    9 2
  16    8   12 1
  17    9   29 1
  18   10   11 1
  19   10   30 1
  20   11   13 1
  21   11   12 1
  22   12   15 2
  23   13   14 2
  24   13   31 1
  25   14   15 1
  26   14   16 1
  27   16   17 1
  28   16   32 1
  29   16   33 1
  30   17   18 1
  31   18   20 ar
  32   18   19 ar
  33   19   23 ar
  34   19   34 1
  35   20   21 ar
  36   21   22 ar
  37   21   35 1
  38   22   23 ar
  39   22   36 1
  40   23   37 1
  41   24   38 1
  42   24   39 1
  43   24   40 1

#	End of record

