#	Name: ASD03331819
#	Creating user name:	WinNT
#	Creation time:	15. 06. 2019 20:39

#	Modifying user name:	WinNT
#	Modification time:	15. 06. 2019 20:39

#	Program:	/corina/corina34_cracker 3.40 0067  02.08.2006

@<TRIPOS>MOLECULE
ASD03331819
  53   55    0    0    0
SMALL
NO_CHARGES


@<TRIPOS>ATOM
   1 C1            -0.0226     1.3566    -0.0782 C.2     
   2 N2            -0.0086    -0.0008    -0.1403 N.pl3   
   3 C3            -1.2876    -0.4318     0.0171 C.2     
   4 N4            -2.0658     0.6165     0.1683 N.2     
   5 C5            -1.3099     1.7371     0.1171 C.2     
   6 C6             1.2113     2.2122    -0.2056 C.3     
   7 N7             2.3886     1.3440    -0.0234 N.3     
   8 C8             2.3033     0.1490    -0.8747 C.3     
   9 C9             1.2102    -0.7886    -0.3459 C.3     
  10 C10            3.6323     2.0833    -0.2770 C.3     
  11 C11           -1.7976     3.1218     0.2444 C.2     
  12 O12           -1.0149     4.0505     0.1814 O.2     
  13 N13           -3.1112     3.3591     0.4306 N.am    
  14 C14           -3.5962     4.7358     0.5572 C.3     
  15 C15           -3.4594     5.1869     1.9885 C.2     
  16 C16           -5.0671     4.7986     0.1409 C.3     
  17 O17           -3.0037     4.4356     2.8178 O.2     
  18 O18           -3.8439     6.4234     2.3422 O.3     
  19 C19           -1.7299    -1.8438     0.0177 C.ar    
  20 C20           -0.8029    -2.8681     0.2116 C.ar    
  21 C21           -1.2216    -4.1828     0.2111 C.ar    
  22 C22           -2.5576    -4.4862     0.0184 C.ar    
  23 C23           -3.4818    -3.4749    -0.1749 C.ar    
  24 C24           -3.0767    -2.1560    -0.1699 C.ar    
  25 C25           -5.8928     3.8818     1.0457 C.3     
  26 C26           -5.5735     6.2363     0.2731 C.3     
  27 C27           -5.2059     4.3406    -1.3123 C.3     
  28 H28            1.2412     2.6708    -1.1939 H       
  29 H29            1.2030     2.9872     0.5608 H       
  30 H30            2.0624     0.4474    -1.8950 H       
  31 H31            3.2614    -0.3707    -0.8668 H       
  32 H32            1.5282    -1.2277     0.5997 H       
  33 H33            1.0194    -1.5780    -1.0729 H       
  34 H34            3.7050     2.9209     0.4168 H       
  35 H35            4.4850     1.4193    -0.1355 H       
  36 H36            3.6298     2.4585    -1.3004 H       
  37 H37           -3.7355     2.6185     0.4808 H       
  38 H38           -3.0079     5.3889    -0.0874 H       
  39 H39           -3.7369     6.6674     3.2717 H       
  40 H40            0.2404    -2.6326     0.3615 H       
  41 H41           -0.5050    -4.9767     0.3611 H       
  42 H42           -2.8804    -5.5168     0.0184 H       
  43 H43           -4.5232    -3.7182    -0.3251 H       
  44 H44           -3.7991    -1.3674    -0.3205 H       
  45 H45           -5.7939     4.2081     2.0810 H       
  46 H46           -6.9407     3.9266     0.7492 H       
  47 H47           -5.5320     2.8576     0.9515 H       
  48 H48           -4.9853     6.8894    -0.3715 H       
  49 H49           -6.6215     6.2811    -0.0234 H       
  50 H50           -5.4746     6.5626     1.3084 H       
  51 H51           -4.8451     3.3164    -1.4065 H       
  52 H52           -6.2539     4.3854    -1.6088 H       
  53 H53           -4.6177     4.9937    -1.9569 H       
@<TRIPOS>BOND
   1    1    2 1
   2    1    6 1
   3    1    5 2
   4    2    3 1
   5    2    9 1
   6    3    4 2
   7    3   19 1
   8    4    5 1
   9    5   11 1
  10    6    7 1
  11    6   28 1
  12    6   29 1
  13    7    8 1
  14    7   10 1
  15    8    9 1
  16    8   30 1
  17    8   31 1
  18    9   32 1
  19    9   33 1
  20   10   34 1
  21   10   35 1
  22   10   36 1
  23   11   12 2
  24   11   13 am
  25   13   14 1
  26   13   37 1
  27   14   15 1
  28   14   16 1
  29   14   38 1
  30   15   17 2
  31   15   18 1
  32   16   25 1
  33   16   26 1
  34   16   27 1
  35   18   39 1
  36   19   20 ar
  37   19   24 ar
  38   20   21 ar
  39   20   40 1
  40   21   22 ar
  41   21   41 1
  42   22   23 ar
  43   22   42 1
  44   23   24 ar
  45   23   43 1
  46   24   44 1
  47   25   45 1
  48   25   46 1
  49   25   47 1
  50   26   48 1
  51   26   49 1
  52   26   50 1
  53   27   51 1
  54   27   52 1
  55   27   53 1

#	End of record

