#	Name: ASD01911537
#	Creating user name:	WinNT
#	Creation time:	15. 06. 2019 19:57

#	Modifying user name:	WinNT
#	Modification time:	15. 06. 2019 19:57

#	Program:	/corina/corina34_cracker 3.40 0067  02.08.2006

@<TRIPOS>MOLECULE
ASD01911537
  25   26    0    0    0
SMALL
NO_CHARGES


@<TRIPOS>ATOM
   1 N1            -0.0158     1.3141     0.0093 N.am    
   2 C2             0.0034     0.0003    -0.0985 C.2     
   3 C3             1.2155    -0.8810    -0.0183 C.3     
   4 S4             2.7000     0.1080    -0.3682 S.o2    
   5 C5             2.3574     1.5809     0.6440 C.3     
   6 C6             1.0872     2.2442     0.1140 C.3     
   7 O7            -1.0622    -0.5496    -0.2796 O.2     
   8 O8             3.8337    -0.5619     0.1657 O.2     
   9 O9             2.6898     0.4812    -1.7393 O.2     
  10 C10           -1.2847     1.8921     0.0180 C.ar    
  11 C11           -1.9496     2.0752     1.2253 C.ar    
  12 C12           -3.2079     2.6503     1.2202 C.ar    
  13 C13           -3.7606     3.0243     0.0019 C.ar    
  14 C14           -3.0428     2.8124    -1.1594 C.ar    
  15 N15           -1.8424     2.2662    -1.1223 N.ar    
  16 Br16          -5.4773     3.8143    -0.0664 Br      
  17 H17            1.2898    -1.3076     0.9819 H       
  18 H18            1.1314    -1.6831    -0.7515 H       
  19 H19            2.2114     1.2865     1.6833 H       
  20 H20            3.1927     2.2777     0.5730 H       
  21 H21            1.2918     2.6620    -0.8717 H       
  22 H22            0.8041     3.0535     0.7870 H       
  23 H23           -1.4901     1.7722     2.1545 H       
  24 H24           -3.7484     2.8046     2.1425 H       
  25 H25           -3.4680     3.1014    -2.1092 H       
@<TRIPOS>BOND
   1    1    2 am
   2    1    6 1
   3    1   10 1
   4    2    3 1
   5    2    7 2
   6    3    4 1
   7    3   17 1
   8    3   18 1
   9    4    5 1
  10    4    8 2
  11    4    9 2
  12    5    6 1
  13    5   19 1
  14    5   20 1
  15    6   21 1
  16    6   22 1
  17   10   11 ar
  18   10   15 ar
  19   11   12 ar
  20   11   23 1
  21   12   13 ar
  22   12   24 1
  23   13   14 ar
  24   13   16 1
  25   14   15 ar
  26   14   25 1

#	End of record

