#	Name: ASD01230002
#	Creating user name:	WinNT
#	Creation time:	15. 06. 2019 19:11

#	Modifying user name:	WinNT
#	Modification time:	15. 06. 2019 19:11

#	Program:	/corina/corina34_cracker 3.40 0067  02.08.2006

@<TRIPOS>MOLECULE
ASD01230002
  31   34    0    0    0
SMALL
NO_CHARGES


@<TRIPOS>ATOM
   1 N1            -0.0180     1.4731     0.0101 N.am    
   2 C2             0.0021    -0.0041     0.0020 C.3     
   3 O3            -1.0796    -0.4751    -0.8032 O.3     
   4 C4            -2.3026     0.0705    -0.5741 C.ar    
   5 C5            -2.4067     1.4116    -0.1710 C.ar    
   6 C6            -1.1623     2.1966    -0.0074 C.2     
   7 C7            -3.4514    -0.6830    -0.7334 C.ar    
   8 C8            -4.6956    -0.1153    -0.4942 C.ar    
   9 C9            -4.7971     1.2160    -0.0916 C.ar    
  10 C10           -3.6561     1.9799     0.0683 C.ar    
  11 O11           -5.8112    -0.8752    -0.6605 O.3     
  12 C12           -7.0131    -0.3973    -0.0471 C.3     
  13 C13           -7.1564     1.0962    -0.3696 C.3     
  14 O14           -6.0125     1.7795     0.1542 O.3     
  15 C15            1.3583     1.9681    -0.0003 C.3     
  16 C16            2.2844     0.7342    -0.0881 C.3     
  17 C17            1.3504    -0.3648    -0.6645 C.3     
  18 O18           -1.1675     3.4077     0.1039 O.2     
  19 H19           -0.0637    -0.4020     1.0147 H       
  20 H20           -3.3805    -1.7147    -1.0449 H       
  21 H21           -3.7327     3.0119     0.3773 H       
  22 H22           -7.8698    -0.9427    -0.4431 H       
  23 H23           -6.9553    -0.5364     1.0324 H       
  24 H24           -7.2056     1.2360    -1.4494 H       
  25 H25           -8.0622     1.4870     0.0940 H       
  26 H26            1.5146     2.6119    -0.8659 H       
  27 H27            1.5612     2.5201     0.9174 H       
  28 H28            3.1177     0.9252    -0.7643 H       
  29 H29            2.6461     0.4528     0.9009 H       
  30 H30            1.6825    -1.3580    -0.3623 H       
  31 H31            1.2824    -0.2904    -1.7498 H       
@<TRIPOS>BOND
   1    1    2 1
   2    1   15 1
   3    1    6 am
   4    2    3 1
   5    2   17 1
   6    2   19 1
   7    3    4 1
   8    4    5 ar
   9    4    7 ar
  10    5    6 1
  11    5   10 ar
  12    6   18 2
  13    7    8 ar
  14    7   20 1
  15    8    9 ar
  16    8   11 1
  17    9   10 ar
  18    9   14 1
  19   10   21 1
  20   11   12 1
  21   12   13 1
  22   12   22 1
  23   12   23 1
  24   13   14 1
  25   13   24 1
  26   13   25 1
  27   15   16 1
  28   15   26 1
  29   15   27 1
  30   16   17 1
  31   16   28 1
  32   16   29 1
  33   17   30 1
  34   17   31 1

#	End of record

