#	Name: ASD03082453
#	Creating user name:	WinNT
#	Creation time:	15. 06. 2019 20:28

#	Modifying user name:	WinNT
#	Modification time:	15. 06. 2019 20:28

#	Program:	/corina/corina34_cracker 3.40 0067  02.08.2006

@<TRIPOS>MOLECULE
ASD03082453
  57   60    0    0    0
SMALL
NO_CHARGES


@<TRIPOS>ATOM
   1 C1             1.1637     3.4983     0.0203 C.ar    
   2 C2             0.0599     4.1856    -0.4707 C.ar    
   3 C3             0.0415     5.5665    -0.4530 C.ar    
   4 C4             1.1197     6.2683     0.0526 C.ar    
   5 C5             2.2245     5.5875     0.5442 C.ar    
   6 N6             1.1828     2.1016     0.0021 N.pl3   
   7 C7             2.3985     1.4202    -0.1188 C.2     
   8 C8             2.5741     0.0278    -0.0419 C.2     
   9 N9             3.5714     1.9703    -0.3293 N.2     
  10 N10            4.5294     0.9499    -0.3875 N.pl3   
  11 C11            3.8897    -0.2352    -0.2078 C.2     
  12 C12            5.9011     1.1206    -0.5970 C.ar    
  13 C13            6.3762     2.1256    -1.4375 C.ar    
  14 C14            6.8289     0.2939     0.0338 C.ar    
  15 C15            8.1739     0.4950    -0.1994 C.ar    
  16 N16            8.5843     1.4545    -1.0069 N.ar    
  17 C17            7.7375     2.2611    -1.6180 C.ar    
  18 C18            9.1871    -0.3921     0.4772 C.3     
  19 C19            8.2634     3.3398    -2.5295 C.3     
  20 C20            2.2494     4.2018     0.5235 C.ar    
  21 O21            3.2837     6.2791     1.0408 O.3     
  22 C22            4.5317    -1.5985    -0.1951 C.3     
  23 O23            3.5303    -2.5946     0.0212 O.3     
  24 C24            4.0363    -3.9307     0.0510 C.3     
  25 C25            2.9002    -4.8931     0.2837 C.ar    
  26 C26            2.2127    -5.4239    -0.7917 C.ar    
  27 C27            1.1706    -6.3066    -0.5782 C.ar    
  28 C28            0.8163    -6.6590     0.7107 C.ar    
  29 C29            1.5044    -6.1289     1.7861 C.ar    
  30 C30            2.5493    -5.2495     1.5724 C.ar    
  31 C31            3.1919     7.7051     1.0258 C.3     
  32 F32            2.0892     8.1094     1.7859 F       
  33 F33            4.3588     8.2532     1.5690 F       
  34 F34            3.0379     8.1487    -0.2920 F       
  35 H35           -0.7837     3.6397    -0.8666 H       
  36 H36           -0.8168     6.0990    -0.8353 H       
  37 H37            1.1024     7.3481     0.0647 H       
  38 H38            0.3530     1.6042     0.0732 H       
  39 H39            1.7957    -0.7028     0.1215 H       
  40 H40            5.6885     2.7889    -1.9409 H       
  41 H41            6.4997    -0.4930     0.6962 H       
  42 H42            9.3911    -1.2573    -0.1535 H       
  43 H43           10.1094     0.1663     0.6375 H       
  44 H44            8.7935    -0.7268     1.4370 H       
  45 H45            8.3450     2.9501    -3.5442 H       
  46 H46            7.5797     4.1886    -2.5201 H       
  47 H47            9.2459     3.6607    -2.1835 H       
  48 H48            3.1084     3.6703     0.9057 H       
  49 H49            5.0221    -1.7781    -1.1519 H       
  50 H50            5.2696    -1.6452     0.6058 H       
  51 H51            4.5164    -4.1587    -0.9007 H       
  52 H52            4.7639    -4.0258     0.8569 H       
  53 H53            2.4895    -5.1486    -1.7986 H       
  54 H54            0.6329    -6.7207    -1.4183 H       
  55 H55            0.0016    -7.3481     0.8776 H       
  56 H56            1.2274    -6.4039     2.7931 H       
  57 H57            3.0870    -4.8354     2.4126 H       
@<TRIPOS>BOND
   1    1    2 ar
   2    1    6 1
   3    1   20 ar
   4    2    3 ar
   5    2   35 1
   6    3    4 ar
   7    3   36 1
   8    4    5 ar
   9    4   37 1
  10    5   20 ar
  11    5   21 1
  12    6    7 1
  13    6   38 1
  14    7    8 1
  15    7    9 2
  16    8   11 2
  17    8   39 1
  18    9   10 1
  19   10   11 1
  20   10   12 1
  21   11   22 1
  22   12   13 ar
  23   12   14 ar
  24   13   17 ar
  25   13   40 1
  26   14   15 ar
  27   14   41 1
  28   15   16 ar
  29   15   18 1
  30   16   17 ar
  31   17   19 1
  32   18   42 1
  33   18   43 1
  34   18   44 1
  35   19   45 1
  36   19   46 1
  37   19   47 1
  38   20   48 1
  39   21   31 1
  40   22   23 1
  41   22   49 1
  42   22   50 1
  43   23   24 1
  44   24   25 1
  45   24   51 1
  46   24   52 1
  47   25   26 ar
  48   25   30 ar
  49   26   27 ar
  50   26   53 1
  51   27   28 ar
  52   27   54 1
  53   28   29 ar
  54   28   55 1
  55   29   30 ar
  56   29   56 1
  57   30   57 1
  58   31   32 1
  59   31   33 1
  60   31   34 1

#	End of record

