#	Name: ASD03081178
#	Creating user name:	WinNT
#	Creation time:	15. 06. 2019 20:27

#	Modifying user name:	WinNT
#	Modification time:	15. 06. 2019 20:27

#	Program:	/corina/corina34_cracker 3.40 0067  02.08.2006

@<TRIPOS>MOLECULE
ASD03081178
  52   54    0    0    0
SMALL
NO_CHARGES


@<TRIPOS>ATOM
   1 C1            -0.1565     1.7392    -0.3553 C.3     
   2 C2            -0.1266     0.2170    -0.1857 C.3     
   3 N3             0.7447    -0.3569    -1.2202 N.am    
   4 C4             2.1161     0.1541    -1.3515 C.3     
   5 C5             2.0618     1.6770    -1.5083 C.3     
   6 C6             1.2750     2.2789    -0.3425 C.3     
   7 C7             1.2466     3.8034    -0.4790 C.3     
   8 C8             0.5121     4.4045     0.7216 C.3     
   9 N9             1.1990     4.0179     1.9606 N.3     
  10 C10            1.1963     2.5601     2.1368 C.3     
  11 C11            1.9508     1.9033     0.9785 C.3     
  12 C12            0.6045     4.6899     3.1238 C.3     
  13 C13            0.2949    -1.3336    -2.0327 C.2     
  14 C14           -1.0375    -1.9269    -1.8061 C.ar    
  15 C15           -1.4612    -2.2210    -0.5077 C.ar    
  16 C16           -2.7064    -2.7748    -0.2978 C.ar    
  17 C17           -3.5416    -3.0414    -1.3755 C.ar    
  18 C18           -3.1244    -2.7502    -2.6729 C.ar    
  19 C19           -1.8799    -2.1903    -2.8892 C.ar    
  20 O20            0.9867    -1.7260    -2.9524 O.2     
  21 O21           -3.9444    -3.0124    -3.7258 O.3     
  22 C22           -3.4522    -2.6886    -5.0277 C.3     
  23 O23           -4.7673    -3.5874    -1.1643 O.3     
  24 C24           -5.8546    -2.6823    -0.9627 C.3     
  25 Cl25          -3.2313    -3.1401     1.3161 Cl      
  26 H26           -0.6314     1.9902    -1.3038 H       
  27 H27           -0.7207     2.1854     0.4636 H       
  28 H28            0.2637    -0.0331     0.8008 H       
  29 H29           -1.1348    -0.1826    -0.2942 H       
  30 H30            2.6881    -0.1012    -0.4595 H       
  31 H31            2.5879    -0.2871    -2.2294 H       
  32 H32            3.0751     2.0788    -1.5092 H       
  33 H33            1.5696     1.9286    -2.4477 H       
  34 H34            2.2672     4.1851    -0.5095 H       
  35 H35            0.7275     4.0770    -1.3975 H       
  36 H36            0.5031     5.4911     0.6351 H       
  37 H37           -0.5126     4.0335     0.7434 H       
  38 H38            1.6844     2.3071     3.0780 H       
  39 H39            0.1683     2.1980     2.1523 H       
  40 H40            1.9340     0.8203     1.1008 H       
  41 H41            2.9830     2.2534     0.9716 H       
  42 H42           -0.4464     4.4126     3.2057 H       
  43 H43            1.1321     4.3858     4.0279 H       
  44 H44            0.6869     5.7698     3.0009 H       
  45 H45           -0.8134    -2.0148     0.3315 H       
  46 H46           -1.5573    -1.9606    -3.8940 H       
  47 H47           -2.5385    -3.2508    -5.2209 H       
  48 H48           -4.2028    -2.9473    -5.7745 H       
  49 H49           -3.2398    -1.6208    -5.0806 H       
  50 H50           -6.7734    -3.2475    -0.8059 H       
  51 H51           -5.6549    -2.0635    -0.0879 H       
  52 H52           -5.9650    -2.0457    -1.8406 H       
@<TRIPOS>BOND
   1    1    2 1
   2    1    6 1
   3    1   26 1
   4    1   27 1
   5    2    3 1
   6    2   28 1
   7    2   29 1
   8    3    4 1
   9    3   13 am
  10    4    5 1
  11    4   30 1
  12    4   31 1
  13    5    6 1
  14    5   32 1
  15    5   33 1
  16    6    7 1
  17    6   11 1
  18    7    8 1
  19    7   34 1
  20    7   35 1
  21    8    9 1
  22    8   36 1
  23    8   37 1
  24    9   10 1
  25    9   12 1
  26   10   11 1
  27   10   38 1
  28   10   39 1
  29   11   40 1
  30   11   41 1
  31   12   42 1
  32   12   43 1
  33   12   44 1
  34   13   14 1
  35   13   20 2
  36   14   15 ar
  37   14   19 ar
  38   15   16 ar
  39   15   45 1
  40   16   17 ar
  41   16   25 1
  42   17   18 ar
  43   17   23 1
  44   18   19 ar
  45   18   21 1
  46   19   46 1
  47   21   22 1
  48   22   47 1
  49   22   48 1
  50   22   49 1
  51   23   24 1
  52   24   50 1
  53   24   51 1
  54   24   52 1

#	End of record

