#	Name: ASD05490032
#	Creating user name:	WinNT
#	Creation time:	15. 06. 2019 21:00

#	Modifying user name:	WinNT
#	Modification time:	15. 06. 2019 21:00

#	Program:	/corina/corina34_cracker 3.40 0067  02.08.2006

@<TRIPOS>MOLECULE
ASD05490032
  41   43    0    0    0
SMALL
NO_CHARGES


@<TRIPOS>ATOM
   1 O1            -0.0173     1.4248     0.0099 O.3     
   2 N2             2.7241     5.3595     0.0030 N.pl3   
   3 N3             2.2883     1.3280    -0.0127 N.ar    
   4 C4             3.4877     1.9005    -0.0215 C.ar    
   5 C5             1.1818     2.0565     0.0018 C.ar    
   6 N6             1.2068     3.3779     0.0082 N.ar    
   7 C7             2.3634     4.0326     0.0003 C.ar    
   8 C8             3.5624     3.3026    -0.0151 C.ar    
   9 N9             4.6391     1.1308    -0.0361 N.pl3   
  10 C10            4.0899     5.4129    -0.0163 C.2     
  11 N11            4.5806     4.2015    -0.0210 N.2     
  12 C12            1.8119     6.5058     0.0175 C.3     
  13 C13            1.5133     6.8921     1.4432 C.2     
  14 S14            0.1975     6.2647     2.4329 S.3     
  15 C15            0.0021    -0.0041     0.0020 C.3     
  16 C16           -1.4333    -0.5336     0.0129 C.3     
  17 C17           -1.4126    -2.0635     0.0045 C.3     
  18 C18           -2.8479    -2.5931     0.0153 C.3     
  19 C19            2.2029     7.7662     2.1814 C.2     
  20 N20            1.7410     7.9335     3.4048 N.2     
  21 C21            0.7005     7.2462     3.7394 C.2     
  22 Br22          -0.1435     7.3137     5.4303 Br      
  23 O23            4.8243     6.5500    -0.0203 O.3     
  24 C24            6.2458     6.4042    -0.0300 C.3     
  25 H25            4.5753     0.1629    -0.0401 H       
  26 H26            5.5091     1.5596    -0.0425 H       
  27 H27            2.2770     7.3467    -0.4969 H       
  28 H28            0.8842     6.2383    -0.4884 H       
  29 H29            0.5123    -0.3556    -0.8948 H       
  30 H30            0.5293    -0.3651     0.8851 H       
  31 H31           -1.9435    -0.1821     0.9097 H       
  32 H32           -1.9605    -0.1726    -0.8702 H       
  33 H33           -0.9024    -2.4150    -0.8923 H       
  34 H34           -0.8854    -2.4246     0.8875 H       
  35 H35           -3.3581    -2.2415     0.9121 H       
  36 H36           -3.3751    -2.2320    -0.8677 H       
  37 H37           -2.8332    -3.6829     0.0093 H       
  38 H38            3.0681     8.2929     1.8065 H       
  39 H39            6.5608     5.8553     0.8575 H       
  40 H40            6.5488     5.8567    -0.9224 H       
  41 H41            6.7121     7.3894    -0.0323 H       
@<TRIPOS>BOND
   1    1   15 1
   2    1    5 1
   3    2   12 1
   4    2    7 1
   5    2   10 1
   6    3    4 ar
   7    3    5 ar
   8    4    9 1
   9    4    8 ar
  10    5    6 ar
  11    6    7 ar
  12    7    8 ar
  13    8   11 1
  14    9   25 1
  15    9   26 1
  16   10   11 2
  17   10   23 1
  18   12   13 1
  19   12   27 1
  20   12   28 1
  21   13   19 2
  22   13   14 1
  23   14   21 1
  24   15   16 1
  25   15   29 1
  26   15   30 1
  27   16   17 1
  28   16   31 1
  29   16   32 1
  30   17   18 1
  31   17   33 1
  32   17   34 1
  33   18   35 1
  34   18   36 1
  35   18   37 1
  36   19   20 1
  37   19   38 1
  38   20   21 2
  39   21   22 1
  40   23   24 1
  41   24   39 1
  42   24   40 1
  43   24   41 1

#	End of record

