#	Name: ASD02230007
#	Creating user name:	WinNT
#	Creation time:	15. 06. 2019 20:20

#	Modifying user name:	WinNT
#	Modification time:	15. 06. 2019 20:20

#	Program:	/corina/corina34_cracker 3.40 0067  02.08.2006

@<TRIPOS>MOLECULE
ASD02230007
  37   38    0    0    0
SMALL
NO_CHARGES


@<TRIPOS>ATOM
   1 C1            -0.0401     1.4210    -0.3155 C.ar    
   2 C2            -0.0119     0.0219    -0.2811 C.ar    
   3 C3             1.2111    -0.6548    -0.3351 C.ar    
   4 C4             2.3858     0.0582    -0.4221 C.ar    
   5 C5             2.3507     1.4578    -0.4561 C.ar    
   6 C6             1.1234     2.1281    -0.4017 C.ar    
   7 C7            -1.2708    -0.7381    -0.1875 C.2     
   8 C8            -1.3784    -2.0982    -0.1462 C.2     
   9 C9            -2.7425    -2.4001    -0.0582 C.2     
  10 C10           -3.4168    -1.1978    -0.0495 C.2     
  11 O11           -2.5069    -0.2061    -0.1227 O.3     
  12 C12            3.6055     2.2244    -0.5492 C.2     
  13 O13            3.5714     3.5714    -0.5819 O.3     
  14 O14            4.6712     1.6422    -0.5964 O.2     
  15 C15           -4.8690    -1.0275     0.0314 C.2     
  16 N16           -5.3787     0.1639     0.1545 N.2     
  17 N17           -4.5399     1.2666     0.3630 N.am    
  18 C18           -5.0548     2.5120     0.3759 C.2     
  19 N19           -6.3766     2.6968     0.1883 N.am    
  20 C20           -6.9363     4.0506     0.2023 C.3     
  21 C21           -8.4465     3.9805    -0.0327 C.3     
  22 S22           -4.0299     3.8594     0.6307 S.2     
  23 Cl23           3.9069    -0.7758    -0.4889 Cl      
  24 H24           -0.9855     1.9419    -0.2783 H       
  25 H25            1.2340    -1.7342    -0.3083 H       
  26 H26            1.0973     3.2074    -0.4284 H       
  27 H27           -0.5646    -2.8076    -0.1757 H       
  28 H28           -3.1820    -3.3853    -0.0070 H       
  29 H29            4.4202     4.0306    -0.6433 H       
  30 H30           -5.5171    -1.8903    -0.0109 H       
  31 H31           -3.5886     1.1336     0.4980 H       
  32 H32           -6.9573     1.9333     0.0439 H       
  33 H33           -6.7401     4.5148     1.1688 H       
  34 H34           -6.4730     4.6435    -0.5863 H       
  35 H35           -8.8630     4.9878    -0.0222 H       
  36 H36           -8.6427     3.5163    -0.9992 H       
  37 H37           -8.9098     3.3876     0.7559 H       
@<TRIPOS>BOND
   1    1    2 ar
   2    1    6 ar
   3    1   24 1
   4    2    3 ar
   5    2    7 1
   6    3    4 ar
   7    3   25 1
   8    4    5 ar
   9    4   23 1
  10    5    6 ar
  11    5   12 1
  12    6   26 1
  13    7    8 2
  14    7   11 1
  15    8    9 1
  16    8   27 1
  17    9   10 2
  18    9   28 1
  19   10   11 1
  20   10   15 1
  21   12   13 1
  22   12   14 2
  23   13   29 1
  24   15   16 2
  25   15   30 1
  26   16   17 1
  27   17   18 am
  28   17   31 1
  29   18   19 am
  30   18   22 2
  31   19   20 1
  32   19   32 1
  33   20   21 1
  34   20   33 1
  35   20   34 1
  36   21   35 1
  37   21   36 1
  38   21   37 1

#	End of record

