#	Name: ASD08150450
#	Creating user name:	WinNT
#	Creation time:	15. 06. 2019 21:16

#	Modifying user name:	WinNT
#	Modification time:	15. 06. 2019 21:16

#	Program:	/corina/corina34_cracker 3.40 0067  02.08.2006

@<TRIPOS>MOLECULE
ASD08150450
  49   52    0    0    0
SMALL
NO_CHARGES


@<TRIPOS>ATOM
   1 N1            -0.0179     1.4659     0.0101 N.3     
   2 C2             0.0021    -0.0041     0.0020 C.3     
   3 C3             0.7497    -0.4921    -1.2417 C.3     
   4 O4             2.0659     0.0673    -1.2506 O.3     
   5 C5             2.0838     1.4973    -1.2437 C.3     
   6 C6             1.3496     2.0055    -0.0001 C.3     
   7 C7            -1.9768     1.5632     2.9952 C.ar    
   8 N8            -2.1399     2.8428     3.2257 N.ar    
   9 C9            -1.6083     3.7752     2.4018 C.ar    
  10 C10           -0.8797     3.3286     1.2971 C.ar    
  11 C11           -0.7333     1.9468     1.0946 C.ar    
  12 N12           -1.2930     1.1088     1.9588 N.ar    
  13 C13           -1.6699     5.1756     2.4745 C.2     
  14 C14           -1.0437     5.8303     1.5092 C.2     
  15 S15           -0.2943     4.7110     0.3831 S.3     
  16 C16           -0.9824     7.3315     1.3929 C.3     
  17 N17            0.1958     7.8309     2.1143 N.3     
  18 C18            0.4236     9.2539     1.8294 C.3     
  19 C19            1.5432     9.7797     2.7339 C.3     
  20 N20            2.7221     8.9158     2.5684 N.am    
  21 C21            2.5440     7.4621     2.7036 C.3     
  22 C22            1.3850     7.0276     1.8002 C.3     
  23 S23            4.2102     9.5628     2.2380 S.o2    
  24 O24            4.9019     8.5227     1.5604 O.2     
  25 O25            3.9211    10.7938     1.5897 O.2     
  26 C26            4.9468     9.8599     3.8689 C.3     
  27 Cl27          -2.6798     0.4205     4.0970 Cl      
  28 H28            0.5087    -0.3661     0.8967 H       
  29 H29           -1.0202    -0.3818    -0.0162 H       
  30 H30            0.8167    -1.5799    -1.2226 H       
  31 H31            0.2136    -0.1754    -2.1363 H       
  32 H32            3.1155     1.8483    -1.2262 H       
  33 H33            1.5864     1.8718    -2.1384 H       
  34 H34            1.3110     3.0946    -0.0198 H       
  35 H35            1.8778     1.6756     0.8946 H       
  36 H36           -2.1953     5.6868     3.2676 H       
  37 H37           -0.9107     7.6119     0.3420 H       
  38 H38           -1.8839     7.7665     1.8243 H       
  39 H39            0.7128     9.3740     0.7853 H       
  40 H40           -0.4917     9.8141     2.0205 H       
  41 H41            1.7949    10.8012     2.4489 H       
  42 H42            1.2155     9.7567     3.7732 H       
  43 H43            3.4574     6.9514     2.3985 H       
  44 H44            2.3125     7.2164     3.7400 H       
  45 H45            1.1669     5.9732     1.9702 H       
  46 H46            1.6608     7.1787     0.7566 H       
  47 H47            5.0241     8.9168     4.4099 H       
  48 H48            5.9405    10.2907     3.7457 H       
  49 H49            4.3184    10.5508     4.4309 H       
@<TRIPOS>BOND
   1    1    2 1
   2    1    6 1
   3    1   11 1
   4    2    3 1
   5    2   28 1
   6    2   29 1
   7    3    4 1
   8    3   30 1
   9    3   31 1
  10    4    5 1
  11    5    6 1
  12    5   32 1
  13    5   33 1
  14    6   34 1
  15    6   35 1
  16    7    8 ar
  17    7   12 ar
  18    7   27 1
  19    8    9 ar
  20    9   10 ar
  21    9   13 1
  22   10   11 ar
  23   10   15 1
  24   11   12 ar
  25   13   14 2
  26   13   36 1
  27   14   15 1
  28   14   16 1
  29   16   17 1
  30   16   37 1
  31   16   38 1
  32   17   18 1
  33   17   22 1
  34   18   19 1
  35   18   39 1
  36   18   40 1
  37   19   20 1
  38   19   41 1
  39   19   42 1
  40   20   21 1
  41   20   23 am
  42   21   22 1
  43   21   43 1
  44   21   44 1
  45   22   45 1
  46   22   46 1
  47   23   24 2
  48   23   25 2
  49   23   26 1
  50   26   47 1
  51   26   48 1
  52   26   49 1

#	End of record

