#	Name: ASD00845016
#	Creating user name:	WinNT
#	Creation time:	15. 06. 2019 18:51

#	Modifying user name:	WinNT
#	Modification time:	15. 06. 2019 18:51

#	Program:	/corina/corina34_cracker 3.40 0067  02.08.2006

@<TRIPOS>MOLECULE
ASD00845016
  89   94    0    0    0
SMALL
NO_CHARGES


@<TRIPOS>ATOM
   1 F1             5.6868    -2.0421    -2.1412 F       
   2 C2             0.6728     1.3180    -0.6087 C.ar    
   3 C3             0.9458    -0.0222    -0.8399 C.ar    
   4 C4             0.8505    -0.9365     0.1994 C.ar    
   5 C5             0.4843    -0.5104     1.4612 C.ar    
   6 C6             0.2122     0.8262     1.6890 C.ar    
   7 C7             0.3069     1.7392     0.6553 C.ar    
   8 C8             1.1459    -2.3934    -0.0483 C.3     
   9 C9             0.8506    -3.2124     1.1901 C.2     
  10 C10            0.3335    -2.9088    -1.2380 C.3     
  11 C11           -1.1286    -2.6251    -1.0085 C.2     
  12 N12           -2.0454    -3.0484    -1.9012 N.am    
  13 O13           -1.4804    -2.0160    -0.0206 O.2     
  14 C14           -3.4596    -2.6779    -1.7548 C.3     
  15 C15           -4.3082    -3.9531    -1.7764 C.3     
  16 C16           -3.9950    -4.7481    -3.0460 C.3     
  17 C17           -2.5184    -5.1504    -3.0467 C.3     
  18 C18           -1.6486    -3.8842    -3.0426 C.3     
  19 C19           -4.8659    -6.0053    -3.0881 C.3     
  20 C20           -6.3436    -5.6043    -3.0892 C.3     
  21 C21           -7.2085    -6.8626    -3.1928 C.3     
  22 N22           -6.8780    -7.5850    -4.4278 N.3     
  23 C23           -5.4759    -8.0215    -4.4286 C.3     
  24 C24           -4.5593    -6.7978    -4.3619 C.3     
  25 H25           -7.5002    -8.3670    -4.5669 H       
  26 O26           -0.2264    -3.3315     1.7352 O.2     
  27 N27            2.0056    -3.7831     1.5719 N.am    
  28 C28            2.6244    -2.6014    -0.2832 C.ar    
  29 C29            3.0660    -3.4449     0.7286 C.ar    
  30 C30            3.4946    -2.1316    -1.2412 C.ar    
  31 C31            4.8296    -2.5003    -1.2029 C.ar    
  32 C32            5.2826    -3.3417    -0.1980 C.ar    
  33 C33            4.4091    -3.8129     0.7632 C.ar    
  34 F34            6.5840    -3.7025    -0.1587 F       
  35 C35            1.8606    -6.4214     2.3417 C.ar    
  36 C36            0.6094    -6.7807     1.8626 C.ar    
  37 C37            2.8778    -7.3555     2.3827 C.ar    
  38 C38            2.6496    -8.6473     1.9462 C.ar    
  39 C39            1.4031    -9.0080     1.4681 C.ar    
  40 C40            0.3828    -8.0780     1.4256 C.ar    
  41 H41            1.2273   -10.0177     1.1277 H       
  42 O42           -0.3928    -5.8638     1.8218 O.3     
  43 C43           -1.6548    -6.3043     1.3163 C.3     
  44 C44           -2.6501    -5.1427     1.3473 C.3     
  45 S45            2.1545    -4.7732     2.8909 S.o2    
  46 O46            3.5195    -4.7179     3.2820 O.2     
  47 O47            1.0822    -4.4436     3.7631 O.2     
  48 O48            1.3055    -0.4391    -2.0823 O.3     
  49 C49            1.2846     0.5373    -3.1256 C.3     
  50 C50            1.8000    -0.0907    -4.4221 C.3     
  51 F51            3.0756    -0.6236    -4.2073 F       
  52 F52            0.9304    -1.1100    -4.8244 F       
  53 H53            0.7506     2.0323    -1.4150 H       
  54 H54            0.4100    -1.2216     2.2705 H       
  55 H55           -0.0747     1.1574     2.6761 H       
  56 H56            0.0939     2.7825     0.8357 H       
  57 H57            0.6627    -2.4064    -2.1476 H       
  58 H58            0.4832    -3.9834    -1.3419 H       
  59 H59           -3.6050    -2.1582    -0.8077 H       
  60 H60           -3.7545    -2.0287    -2.5792 H       
  61 H61           -4.0761    -4.5595    -0.9009 H       
  62 H62           -5.3652    -3.6869    -1.7653 H       
  63 H63           -4.2040    -4.1323    -3.9209 H       
  64 H64           -2.3031    -5.7456    -2.1593 H       
  65 H65           -2.3015    -5.7365    -3.9398 H       
  66 H66           -1.7971    -3.3358    -3.9729 H       
  67 H67           -0.5993    -4.1619    -2.9433 H       
  68 H68           -4.6567    -6.6228    -2.2146 H       
  69 H69           -6.5782    -5.0766    -2.1648 H       
  70 H70           -6.5437    -4.9541    -3.9409 H       
  71 H71           -7.0182    -7.5059    -2.3337 H       
  72 H72           -8.2611    -6.5796    -3.2082 H       
  73 H73           -5.2936    -8.6593    -3.5638 H       
  74 H74           -5.2700    -8.5801    -5.3416 H       
  75 H75           -4.7312    -6.1664    -5.2336 H       
  76 H76           -3.5190    -7.1228    -4.3467 H       
  77 H77            3.1368    -1.4768    -2.0220 H       
  78 H78            4.7684    -4.4676     1.5433 H       
  79 H79            3.8521    -7.0763     2.7556 H       
  80 H80            3.4462    -9.3758     1.9783 H       
  81 H81           -0.5907    -8.3603     1.0528 H       
  82 H82           -1.5340    -6.6520     0.2904 H       
  83 H83           -2.0292    -7.1201     1.9347 H       
  84 H84           -2.7710    -4.7950     2.3733 H       
  85 H85           -2.2757    -4.3269     0.7289 H       
  86 H86           -3.6127    -5.4786     0.9617 H       
  87 H87            0.2637     0.8895    -3.2732 H       
  88 H88            1.9225     1.3771    -2.8500 H       
  89 H89            1.8509     0.6715    -5.1997 H       
@<TRIPOS>BOND
   1    1   31 1
   2    2    3 ar
   3    2    7 ar
   4    2   53 1
   5    3    4 ar
   6    3   48 1
   7    4    5 ar
   8    4    8 1
   9    5    6 ar
  10    5   54 1
  11    6    7 ar
  12    6   55 1
  13    7   56 1
  14    8    9 1
  15    8   10 1
  16    8   28 1
  17    9   26 2
  18    9   27 am
  19   10   11 1
  20   10   57 1
  21   10   58 1
  22   11   12 am
  23   11   13 2
  24   12   14 1
  25   12   18 1
  26   14   15 1
  27   14   59 1
  28   14   60 1
  29   15   16 1
  30   15   61 1
  31   15   62 1
  32   16   17 1
  33   16   19 1
  34   16   63 1
  35   17   18 1
  36   17   64 1
  37   17   65 1
  38   18   66 1
  39   18   67 1
  40   19   20 1
  41   19   24 1
  42   19   68 1
  43   20   21 1
  44   20   69 1
  45   20   70 1
  46   21   22 1
  47   21   71 1
  48   21   72 1
  49   22   23 1
  50   22   25 1
  51   23   24 1
  52   23   73 1
  53   23   74 1
  54   24   75 1
  55   24   76 1
  56   27   45 am
  57   27   29 1
  58   28   29 ar
  59   28   30 ar
  60   29   33 ar
  61   30   31 ar
  62   30   77 1
  63   31   32 ar
  64   32   33 ar
  65   32   34 1
  66   33   78 1
  67   35   36 ar
  68   35   37 ar
  69   35   45 1
  70   36   42 1
  71   36   40 ar
  72   37   38 ar
  73   37   79 1
  74   38   39 ar
  75   38   80 1
  76   39   40 ar
  77   39   41 1
  78   40   81 1
  79   42   43 1
  80   43   44 1
  81   43   82 1
  82   43   83 1
  83   44   84 1
  84   44   85 1
  85   44   86 1
  86   45   46 2
  87   45   47 2
  88   48   49 1
  89   49   50 1
  90   49   87 1
  91   49   88 1
  92   50   51 1
  93   50   52 1
  94   50   89 1

#	End of record

