#	Name: ASD02590042
#	Creating user name:	WinNT
#	Creation time:	15. 06. 2019 20:25

#	Modifying user name:	WinNT
#	Modification time:	15. 06. 2019 20:25

#	Program:	/corina/corina34_cracker 3.40 0067  02.08.2006

@<TRIPOS>MOLECULE
ASD02590042
  28   30    0    0    0
SMALL
NO_CHARGES


@<TRIPOS>ATOM
   1 C1            -0.0168     1.3880     0.0097 C.ar    
   2 C2             0.0021    -0.0041     0.0020 C.ar    
   3 C3            -1.1768    -0.7182     0.0099 C.ar    
   4 C4            -2.3920    -0.0483     0.0256 C.ar    
   5 C5            -2.4200     1.3580     0.0334 C.ar    
   6 C6            -1.2162     2.0706     0.0305 C.ar    
   7 N7            -3.7117    -0.4594     0.0365 N.pl3   
   8 C8            -4.4866     0.6686     0.0502 C.2     
   9 N9            -3.7217     1.7325     0.0483 N.2     
  10 C10           -5.9655     0.6844     0.0650 C.ar    
  11 C11           -6.6456     1.9040     0.0783 C.ar    
  12 C12           -8.0330     1.9004     0.0921 C.ar    
  13 C13           -8.6912     0.6804     0.0921 C.ar    
  14 C14           -7.9527    -0.4906     0.0785 C.ar    
  15 N15           -6.6371    -0.4614     0.0601 N.ar    
  16 F16           -5.9629     3.0698     0.0782 F       
  17 O17            1.1540     2.0795     0.0022 O.3     
  18 C18            2.3600     1.3131    -0.0134 C.3     
  19 F19            2.3889     0.5125    -1.1603 F       
  20 F20            3.4609     2.1762    -0.0193 F       
  21 F21            2.4107     0.5002     1.1241 F       
  22 H22            0.9465    -0.5278    -0.0105 H       
  23 H23           -1.1548    -1.7980     0.0035 H       
  24 H24           -1.2254     3.1506     0.0368 H       
  25 H25           -4.0292    -1.3760     0.0342 H       
  26 H26           -8.5876     2.8271     0.1029 H       
  27 H27           -9.7705     0.6437     0.1030 H       
  28 H28           -8.4638    -1.4420     0.0788 H       
@<TRIPOS>BOND
   1    1    2 ar
   2    1   17 1
   3    1    6 ar
   4    2    3 ar
   5    2   22 1
   6    3    4 ar
   7    3   23 1
   8    4    5 ar
   9    4    7 1
  10    5    6 ar
  11    5    9 1
  12    6   24 1
  13    7    8 1
  14    7   25 1
  15    8    9 2
  16    8   10 1
  17   10   11 ar
  18   10   15 ar
  19   11   12 ar
  20   11   16 1
  21   12   13 ar
  22   12   26 1
  23   13   14 ar
  24   13   27 1
  25   14   15 ar
  26   14   28 1
  27   17   18 1
  28   18   19 1
  29   18   20 1
  30   18   21 1

#	End of record

