#	Name: ASD01912389
#	Creating user name:	WinNT
#	Creation time:	15. 06. 2019 19:59

#	Modifying user name:	WinNT
#	Modification time:	15. 06. 2019 19:59

#	Program:	/corina/corina34_cracker 3.40 0067  02.08.2006

@<TRIPOS>MOLECULE
ASD01912389
  43   45    0    0    0
SMALL
NO_CHARGES


@<TRIPOS>ATOM
   1 C1            -0.0168     1.3872     0.0097 C.ar    
   2 C2             0.0021    -0.0041     0.0020 C.ar    
   3 C3             1.2195    -0.6601    -0.0132 C.ar    
   4 C4             2.3819     0.0999    -0.0202 C.ar    
   5 C5             2.2894     1.4770    -0.0120 C.ar    
   6 N6             1.1136     2.0763     0.0026 N.ar    
   7 N7             3.7065    -0.5602    -0.0360 N.pl3   
   8 O8             3.7810    -1.7759    -0.0428 O.2     
   9 O9             4.7220     0.1123    -0.0421 O.2     
  10 N10           -1.2333     2.0595     0.0191 N.3     
  11 C11           -1.0308     3.5137     0.0260 C.3     
  12 C12           -2.3732     4.2159    -0.2088 C.3     
  13 C13           -3.3638     3.6989     0.8133 C.2     
  14 C14           -3.4785     2.1992     0.9892 C.3     
  15 C15           -2.0659     1.6252     1.1478 C.3     
  16 C16           -4.1092     4.5355     1.5341 C.2     
  17 C17           -5.0385     4.0206     2.4941 C.1     
  18 C18           -5.8005     3.5985     3.2812 C.1     
  19 C19           -6.7299     3.0836     4.2413 C.ar    
  20 C20           -7.5096     3.9658     4.9950 C.ar    
  21 C21           -8.4021     3.4521     5.9177 C.ar    
  22 C22           -8.4894     2.0735     6.0604 C.ar    
  23 C23           -7.6883     1.2575     5.2826 C.ar    
  24 N24           -6.8491     1.7693     4.4059 N.ar    
  25 C25           -7.7815    -0.2388     5.4358 C.3     
  26 H26           -0.9214    -0.5640     0.0082 H       
  27 H27            1.2652    -1.7391    -0.0191 H       
  28 H28            3.1908     2.0718    -0.0174 H       
  29 H29           -0.6243     3.8196     0.9900 H       
  30 H30           -0.3339     3.7875    -0.7661 H       
  31 H31           -2.2506     5.2925    -0.0900 H       
  32 H32           -2.7328     3.9949    -1.2137 H       
  33 H33           -4.0675     1.9774     1.8791 H       
  34 H34           -3.9567     1.7618     0.1128 H       
  35 H35           -2.1157     0.5364     1.1651 H       
  36 H36           -1.6302     1.9842     2.0802 H       
  37 H37           -4.0125     5.6021     1.3942 H       
  38 H38           -7.4159     5.0331     4.8587 H       
  39 H39           -9.0176     4.1087     6.5147 H       
  40 H40           -9.1768     1.6422     6.7730 H       
  41 H41           -8.5344    -0.6281     4.7504 H       
  42 H42           -6.8151    -0.6883     5.2074 H       
  43 H43           -8.0624    -0.4823     6.4604 H       
@<TRIPOS>BOND
   1    1    2 ar
   2    1    6 ar
   3    1   10 1
   4    2    3 ar
   5    2   26 1
   6    3    4 ar
   7    3   27 1
   8    4    5 ar
   9    4    7 1
  10    5    6 ar
  11    5   28 1
  12    7    8 2
  13    7    9 2
  14   10   11 1
  15   10   15 1
  16   11   12 1
  17   11   29 1
  18   11   30 1
  19   12   13 1
  20   12   31 1
  21   12   32 1
  22   13   14 1
  23   13   16 2
  24   14   15 1
  25   14   33 1
  26   14   34 1
  27   15   35 1
  28   15   36 1
  29   16   17 1
  30   16   37 1
  31   17   18 3
  32   18   19 1
  33   19   20 ar
  34   19   24 ar
  35   20   21 ar
  36   20   38 1
  37   21   22 ar
  38   21   39 1
  39   22   23 ar
  40   22   40 1
  41   23   24 ar
  42   23   25 1
  43   25   41 1
  44   25   42 1
  45   25   43 1

#	End of record

