#	Name: ASD08070133
#	Creating user name:	WinNT
#	Creation time:	15. 06. 2019 21:14

#	Modifying user name:	WinNT
#	Modification time:	15. 06. 2019 21:14

#	Program:	/corina/corina34_cracker 3.40 0067  02.08.2006

@<TRIPOS>MOLECULE
ASD08070133
  37   38    0    0    0
SMALL
NO_CHARGES


@<TRIPOS>ATOM
   1 C1            -0.0143     1.2041     0.0087 C.2     
   2 C2            -1.3295     1.9397     0.0189 C.3     
   3 C3            -1.4284     2.8250    -1.2251 C.3     
   4 C4            -1.4668     1.9445    -2.4758 C.3     
   5 O5             0.0021    -0.0041     0.0020 O.2     
   6 O6             1.1389     1.8910     0.0013 O.3     
   7 C7            -2.7052     3.6648    -1.1532 C.3     
   8 C8            -3.6321     1.3198     0.5197 C.2     
   9 O9            -3.8032     2.4355     0.9716 O.2     
  10 N10           -2.4300     0.9727     0.0189 N.am    
  11 O11           -8.3126    -0.1168     1.4752 O.3     
  12 C12           -8.7772    -1.4744     1.5938 C.3     
  13 O13           -7.9849    -2.1933     0.6305 O.3     
  14 C14           -6.8221    -1.4904     0.5163 C.ar    
  15 C15           -7.0230    -0.2107     1.0365 C.ar    
  16 C16           -5.9882     0.7036     1.0387 C.ar    
  17 C17           -4.7409     0.3455     0.5197 C.ar    
  18 C18           -4.5464    -0.9365     0.0006 C.ar    
  19 C19           -5.5830    -1.8445     0.0005 C.ar    
  20 C20            2.3672     1.1168    -0.0145 C.3     
  21 H21           -1.3915     2.5607     0.9126 H       
  22 H22           -0.5618     3.4845    -1.2715 H       
  23 H23           -2.3334     1.2850    -2.4294 H       
  24 H24           -1.5373     2.5752    -3.3620 H       
  25 H25           -0.5572     1.3462    -2.5270 H       
  26 H26           -2.7757     4.2955    -2.0394 H       
  27 H27           -3.5718     3.0053    -1.1068 H       
  28 H28           -2.6779     4.2921    -0.2622 H       
  29 H29           -2.2935     0.0826    -0.3417 H       
  30 H30           -8.5958    -1.8547     2.5991 H       
  31 H31           -9.8361    -1.5398     1.3440 H       
  32 H32           -6.1425     1.6940     1.4406 H       
  33 H33           -3.5837    -1.2159    -0.4014 H       
  34 H34           -5.4305    -2.8353    -0.4013 H       
  35 H35            2.4091     0.4836     0.8717 H       
  36 H36            2.3921     0.4932    -0.9082 H       
  37 H37            3.2225     1.7925    -0.0191 H       
@<TRIPOS>BOND
   1    1    5 2
   2    1    6 1
   3    1    2 1
   4    2    3 1
   5    2   10 1
   6    2   21 1
   7    3    4 1
   8    3    7 1
   9    3   22 1
  10    4   23 1
  11    4   24 1
  12    4   25 1
  13    6   20 1
  14    7   26 1
  15    7   27 1
  16    7   28 1
  17    8    9 2
  18    8   10 am
  19    8   17 1
  20   10   29 1
  21   11   12 1
  22   11   15 1
  23   12   13 1
  24   12   30 1
  25   12   31 1
  26   13   14 1
  27   14   15 ar
  28   14   19 ar
  29   15   16 ar
  30   16   17 ar
  31   16   32 1
  32   17   18 ar
  33   18   19 ar
  34   18   33 1
  35   19   34 1
  36   20   35 1
  37   20   36 1
  38   20   37 1

#	End of record

