#	Name: ASD01911088
#	Creating user name:	WinNT
#	Creation time:	15. 06. 2019 19:57

#	Modifying user name:	WinNT
#	Modification time:	15. 06. 2019 19:57

#	Program:	/corina/corina34_cracker 3.40 0067  02.08.2006

@<TRIPOS>MOLECULE
ASD01911088
  47   50    0    0    0
SMALL
NO_CHARGES


@<TRIPOS>ATOM
   1 C1            -0.2316     1.7252     0.9462 C.3     
   2 C2            -0.2003     0.2286     0.7720 C.2     
   3 N3            -0.1112    -0.6662     1.7252 N.2     
   4 N4            -0.1144    -1.8321     1.1760 N.pl3   
   5 N5            -0.2034    -1.6960    -0.1015 N.2     
   6 N6            -0.2639    -0.4380    -0.3807 N.2     
   7 C7            -0.0302    -3.1082     1.8906 C.3     
   8 C8            -1.2786    -3.9426     1.5950 C.3     
   9 C9            -1.2071    -5.2621     2.3670 C.3     
  10 C10            0.0224    -6.0519     1.9073 C.3     
  11 N11            1.2121    -5.2022     2.0531 N.am    
  12 C12            1.2126    -3.8737     1.4255 C.3     
  13 C13            2.2826    -5.6332     2.7493 C.2     
  14 O14            2.2311    -6.6873     3.3527 O.2     
  15 C15            3.5186    -4.8246     2.7792 C.ar    
  16 C16            4.2284    -4.6734     3.9723 C.ar    
  17 C17            5.3810    -3.9179     3.9946 C.ar    
  18 C18            5.8360    -3.3085     2.8352 C.ar    
  19 C19            5.1349    -3.4550     1.6479 C.ar    
  20 C20            3.9845    -4.2135     1.6131 C.ar    
  21 F21            6.9663    -2.5691     2.8625 F       
  22 C22            1.1751     2.2647     0.9098 C.ar    
  23 C23            1.7373     2.6484    -0.2934 C.ar    
  24 C24            3.0276     3.1432    -0.3267 C.ar    
  25 C25            3.7556     3.2547     0.8431 C.ar    
  26 C26            3.1931     2.8718     2.0464 C.ar    
  27 C27            1.9012     2.3810     2.0803 C.ar    
  28 H28           -0.8133     2.1727     0.1403 H       
  29 H29           -0.6899     1.9700     1.9043 H       
  30 H30            0.0370    -2.9213     2.9623 H       
  31 H31           -2.1662    -3.3896     1.9025 H       
  32 H32           -1.3323    -4.1496     0.5262 H       
  33 H33           -1.1285    -5.0553     3.4343 H       
  34 H34           -2.1073    -5.8456     2.1743 H       
  35 H35            0.1337    -6.9451     2.5221 H       
  36 H36           -0.0967    -6.3377     0.8622 H       
  37 H37            1.1906    -3.9818     0.3411 H       
  38 H38            2.1092    -3.3297     1.7224 H       
  39 H39            3.8746    -5.1473     4.8760 H       
  40 H40            5.9305    -3.8000     4.9168 H       
  41 H41            5.4935    -2.9780     0.7478 H       
  42 H42            3.4393    -4.3273     0.6878 H       
  43 H43            1.1685     2.5613    -1.2073 H       
  44 H44            3.4671     3.4423    -1.2668 H       
  45 H45            4.7639     3.6406     0.8169 H       
  46 H46            3.7619     2.9586     2.9603 H       
  47 H47            1.4617     2.0819     3.0204 H       
@<TRIPOS>BOND
   1    1    2 1
   2    1   22 1
   3    1   28 1
   4    1   29 1
   5    2    3 2
   6    2    6 1
   7    3    4 1
   8    4    5 1
   9    4    7 1
  10    5    6 2
  11    7    8 1
  12    7   12 1
  13    7   30 1
  14    8    9 1
  15    8   31 1
  16    8   32 1
  17    9   10 1
  18    9   33 1
  19    9   34 1
  20   10   11 1
  21   10   35 1
  22   10   36 1
  23   11   12 1
  24   11   13 am
  25   12   37 1
  26   12   38 1
  27   13   14 2
  28   13   15 1
  29   15   16 ar
  30   15   20 ar
  31   16   17 ar
  32   16   39 1
  33   17   18 ar
  34   17   40 1
  35   18   19 ar
  36   18   21 1
  37   19   20 ar
  38   19   41 1
  39   20   42 1
  40   22   23 ar
  41   22   27 ar
  42   23   24 ar
  43   23   43 1
  44   24   25 ar
  45   24   44 1
  46   25   26 ar
  47   25   45 1
  48   26   27 ar
  49   26   46 1
  50   27   47 1

#	End of record

