#	Name: ASD01880301
#	Creating user name:	WinNT
#	Creation time:	15. 06. 2019 19:40

#	Modifying user name:	WinNT
#	Modification time:	15. 06. 2019 19:40

#	Program:	/corina/corina34_cracker 3.40 0067  02.08.2006

@<TRIPOS>MOLECULE
ASD01880301
  47   49    0    0    0
SMALL
NO_CHARGES


@<TRIPOS>ATOM
   1 C1            -0.0161     1.3387     0.0094 C.2     
   2 C2             0.0021    -0.0041     0.0020 C.2     
   3 N3            -1.1405    -0.7515     0.0094 N.am    
   4 C4            -2.3666    -0.1919     0.0246 C.2     
   5 C5            -2.4866     1.2700     0.0336 C.ar    
   6 C6            -1.3007     2.0401     0.0316 C.ar    
   7 O7            -3.3632    -0.8919     0.0304 O.2     
   8 C8            -1.0300    -2.2123    -0.0001 C.3     
   9 C9            -0.9768    -2.7291     1.4390 C.3     
  10 C10           -0.8614    -4.2547     1.4291 C.3     
  11 C11           -3.7251     1.9111     0.0495 C.ar    
  12 C12           -3.7761     3.2776     0.0574 C.ar    
  13 C13           -2.6115     4.0346     0.0493 C.ar    
  14 C14           -1.3835     3.4334     0.0410 C.ar    
  15 C15            1.2746     2.1165     0.0013 C.3     
  16 C16            1.6328     2.4951    -1.4372 C.3     
  17 C17            2.9236     3.2728    -1.4454 C.ar    
  18 C18            4.1296     2.6073    -1.5649 C.ar    
  19 C19            5.3142     3.3180    -1.5726 C.ar    
  20 C20            5.2931     4.7006    -1.4603 C.ar    
  21 C21            4.0816     5.3660    -1.3405 C.ar    
  22 C22            2.8995     4.6512    -1.3390 C.ar    
  23 O23            6.4571     5.4020    -1.4672 O.3     
  24 C24            6.3593     6.8226    -1.3477 C.3     
  25 H25            0.9555    -0.5113    -0.0106 H       
  26 H26           -1.8952    -2.6389    -0.5076 H       
  27 H27           -0.1204    -2.5045    -0.5249 H       
  28 H28           -0.1116    -2.3025     1.9465 H       
  29 H29           -1.8864    -2.4369     1.9638 H       
  30 H30           -0.8235    -4.6229     2.4544 H       
  31 H31           -1.7266    -4.6813     0.9216 H       
  32 H32            0.0482    -4.5469     0.9044 H       
  33 H33           -4.6371     1.3326     0.0552 H       
  34 H34           -4.7347     3.7749     0.0696 H       
  35 H35           -2.6769     5.1126     0.0554 H       
  36 H36           -0.4846     4.0320     0.0351 H       
  37 H37            1.1570     3.0218     0.5967 H       
  38 H38            2.0706     1.5039     0.4247 H       
  39 H39            1.7504     1.5897    -2.0327 H       
  40 H40            0.8369     3.1076    -1.8607 H       
  41 H41            4.1456     1.5310    -1.6519 H       
  42 H42            6.2561     2.7977    -1.6656 H       
  43 H43            4.0625     6.4423    -1.2530 H       
  44 H44            1.9562     5.1687    -1.2458 H       
  45 H45            7.3581     7.2585    -1.3670 H       
  46 H46            5.7744     7.2177    -2.1783 H       
  47 H47            5.8707     7.0752    -0.4067 H       
@<TRIPOS>BOND
   1    1    2 2
   2    1   15 1
   3    1    6 1
   4    2    3 1
   5    2   25 1
   6    3    4 am
   7    3    8 1
   8    4    5 1
   9    4    7 2
  10    5    6 ar
  11    5   11 ar
  12    6   14 ar
  13    8    9 1
  14    8   26 1
  15    8   27 1
  16    9   10 1
  17    9   28 1
  18    9   29 1
  19   10   30 1
  20   10   31 1
  21   10   32 1
  22   11   12 ar
  23   11   33 1
  24   12   13 ar
  25   12   34 1
  26   13   14 ar
  27   13   35 1
  28   14   36 1
  29   15   16 1
  30   15   37 1
  31   15   38 1
  32   16   17 1
  33   16   39 1
  34   16   40 1
  35   17   18 ar
  36   17   22 ar
  37   18   19 ar
  38   18   41 1
  39   19   20 ar
  40   19   42 1
  41   20   21 ar
  42   20   23 1
  43   21   22 ar
  44   21   43 1
  45   22   44 1
  46   23   24 1
  47   24   45 1
  48   24   46 1
  49   24   47 1

#	End of record

