#	Name: ASD00843574
#	Creating user name:	WinNT
#	Creation time:	15. 06. 2019 18:47

#	Modifying user name:	WinNT
#	Modification time:	15. 06. 2019 18:47

#	Program:	/corina/corina34_cracker 3.40 0067  02.08.2006

@<TRIPOS>MOLECULE
ASD00843574
  88   93    0    0    0
SMALL
NO_CHARGES


@<TRIPOS>ATOM
   1 F1             5.5725    -2.3913    -2.0688 F       
   2 N2             0.7613     1.0362    -0.2414 N.ar    
   3 C3             0.9585    -0.2416    -0.5194 C.ar    
   4 C4             0.8645    -1.2053     0.4768 C.ar    
   5 C5             0.5610    -0.8114     1.7681 C.ar    
   6 C6             0.3612     0.5395     2.0186 C.ar    
   7 C7             0.4705     1.4423     0.9800 C.ar    
   8 C8             1.0895    -2.6603     0.1553 C.3     
   9 C9             0.7943    -3.5222     1.3642 C.2     
  10 C10            0.2221    -3.0860    -1.0309 C.3     
  11 C11           -1.2209    -2.7643    -0.7391 C.2     
  12 N12           -2.1850    -3.1540    -1.5966 N.am    
  13 O13           -1.5148    -2.1547     0.2673 O.2     
  14 C14           -3.5854    -2.7548    -1.3901 C.3     
  15 C15           -4.1151    -2.1459    -2.6927 C.3     
  16 N16           -3.8947    -3.0903    -3.7961 N.3     
  17 C17           -2.4620    -3.3324    -4.0121 C.3     
  18 C18           -1.8636    -3.9848    -2.7669 C.3     
  19 N19           -4.5342    -2.6247    -5.0161 N.3     
  20 C20           -4.3137    -3.5694    -6.1199 C.3     
  21 C21           -5.0668    -3.0847    -7.3609 C.3     
  22 N22           -4.5976    -1.7395    -7.7212 N.3     
  23 C23           -4.8181    -0.7947    -6.6174 C.3     
  24 C24           -4.0649    -1.2795    -5.3764 C.3     
  25 H25           -3.6263    -1.7564    -7.9941 H       
  26 O26           -0.2711    -3.6205     1.9354 O.2     
  27 N27            1.9332    -4.1581     1.6857 N.am    
  28 C28            2.5509    -2.9189    -0.1338 C.ar    
  29 C29            2.9842    -3.8270     0.8269 C.ar    
  30 C30            3.4100    -2.4395    -1.0979 C.ar    
  31 C31            4.7284    -2.8596    -1.1235 C.ar    
  32 C32            5.1818    -3.7722    -0.1656 C.ar    
  33 C33            4.3067    -4.2540     0.8076 C.ar    
  34 C34            1.6944    -6.8208     2.3397 C.ar    
  35 C35            0.4154    -7.1031     1.8819 C.ar    
  36 C36            2.6718    -7.7974     2.3091 C.ar    
  37 C37            2.3783    -9.0566     1.8225 C.ar    
  38 C38            1.1004    -9.3440     1.3634 C.ar    
  39 C39            0.1183    -8.3663     1.3934 C.ar    
  40 O40            0.8122   -10.5830     0.8853 O.3     
  41 O41           -0.5453    -6.1425     1.9126 O.3     
  42 C42           -1.8393    -6.5033     1.4253 C.3     
  43 C43            1.8725   -11.5409     0.8845 C.3     
  44 C44            6.5442    -4.2125    -0.1844 C.1     
  45 N45            7.6251    -4.5618    -0.1994 N.1     
  46 O46            1.2550    -0.6150    -1.7896 O.3     
  47 C47            1.2857     0.4161    -2.7785 C.3     
  48 C48            1.7360    -0.1737    -4.1165 C.3     
  49 F49            2.9761    -0.8011    -3.9558 F       
  50 F50            0.7931    -1.1098    -4.5545 F       
  51 S51            2.0748    -5.2137     2.9538 S.o2    
  52 O52            3.4511    -5.2344     3.3069 O.2     
  53 O53            1.0421    -4.8798     3.8710 O.2     
  54 H54            0.4809    -1.5382     2.5629 H       
  55 H55            0.1225     0.8803     3.0152 H       
  56 H56            0.3164     2.4943     1.1696 H       
  57 H57            0.5404    -2.5496    -1.9248 H       
  58 H58            0.3296    -4.1585    -1.1933 H       
  59 H59           -4.1803    -3.6292    -1.1262 H       
  60 H60           -3.6414    -2.0156    -0.5910 H       
  61 H61           -5.1819    -1.9455    -2.5931 H       
  62 H62           -3.5875    -1.2149    -2.8999 H       
  63 H63           -2.3298    -3.9925    -4.8694 H       
  64 H64           -1.9574    -2.3848    -4.2009 H       
  65 H65           -0.7819    -4.0614    -2.8776 H       
  66 H66           -2.2919    -4.9780    -2.6322 H       
  67 H67           -3.2479    -3.6279    -6.3411 H       
  68 H68           -4.6806    -4.5551    -5.8337 H       
  69 H69           -4.8812    -3.7685    -8.1892 H       
  70 H70           -6.1354    -3.0522    -7.1482 H       
  71 H71           -4.4511     0.1910    -6.9036 H       
  72 H72           -5.8838    -0.7362    -6.3962 H       
  73 H73           -4.2505    -0.5956    -4.5481 H       
  74 H74           -2.9963    -1.3120    -5.5891 H       
  75 H75            3.0541    -1.7349    -1.8350 H       
  76 H76            4.6571    -4.9587     1.5471 H       
  77 H77            3.6667    -7.5757     2.6659 H       
  78 H78            3.1440    -9.8179     1.7990 H       
  79 H79           -0.8768    -8.5881     1.0370 H       
  80 H80           -1.7627    -6.8076     0.3815 H       
  81 H81           -2.2328    -7.3300     2.0168 H       
  82 H82           -2.5096    -5.6476     1.5060 H       
  83 H83            2.6939   -11.1733     0.2693 H       
  84 H84            2.2236   -11.6951     1.9048 H       
  85 H85            1.5090   -12.4850     0.4788 H       
  86 H86            0.2895     0.8449    -2.8873 H       
  87 H87            1.9844     1.1940    -2.4707 H       
  88 H88            1.8254     0.6243    -4.8536 H       
@<TRIPOS>BOND
   1    1   31 1
   2    2    3 ar
   3    2    7 ar
   4    3    4 ar
   5    3   46 1
   6    4    5 ar
   7    4    8 1
   8    5    6 ar
   9    5   54 1
  10    6    7 ar
  11    6   55 1
  12    7   56 1
  13    8    9 1
  14    8   10 1
  15    8   28 1
  16    9   26 2
  17    9   27 am
  18   10   11 1
  19   10   57 1
  20   10   58 1
  21   11   12 am
  22   11   13 2
  23   12   14 1
  24   12   18 1
  25   14   15 1
  26   14   59 1
  27   14   60 1
  28   15   16 1
  29   15   61 1
  30   15   62 1
  31   16   17 1
  32   16   19 1
  33   17   18 1
  34   17   63 1
  35   17   64 1
  36   18   65 1
  37   18   66 1
  38   19   20 1
  39   19   24 1
  40   20   21 1
  41   20   67 1
  42   20   68 1
  43   21   22 1
  44   21   69 1
  45   21   70 1
  46   22   23 1
  47   22   25 1
  48   23   24 1
  49   23   71 1
  50   23   72 1
  51   24   73 1
  52   24   74 1
  53   27   51 am
  54   27   29 1
  55   28   29 ar
  56   28   30 ar
  57   29   33 ar
  58   30   31 ar
  59   30   75 1
  60   31   32 ar
  61   32   33 ar
  62   32   44 1
  63   33   76 1
  64   34   35 ar
  65   34   36 ar
  66   34   51 1
  67   35   41 1
  68   35   39 ar
  69   36   37 ar
  70   36   77 1
  71   37   38 ar
  72   37   78 1
  73   38   39 ar
  74   38   40 1
  75   39   79 1
  76   40   43 1
  77   41   42 1
  78   42   80 1
  79   42   81 1
  80   42   82 1
  81   43   83 1
  82   43   84 1
  83   43   85 1
  84   44   45 3
  85   46   47 1
  86   47   48 1
  87   47   86 1
  88   47   87 1
  89   48   49 1
  90   48   50 1
  91   48   88 1
  92   51   52 2
  93   51   53 2

#	End of record

