#	Name: ASD07300824
#	Creating user name:	WinNT
#	Creation time:	15. 06. 2019 21:10

#	Modifying user name:	WinNT
#	Modification time:	15. 06. 2019 21:10

#	Program:	/corina/corina34_cracker 3.40 0067  02.08.2006

@<TRIPOS>MOLECULE
ASD07300824
  48   51    0    0    0
SMALL
NO_CHARGES


@<TRIPOS>ATOM
   1 C1            -0.0173     1.4132    -0.0101 C.2     
   2 C2             0.0021    -0.0041     0.0020 C.2     
   3 N3             1.1773     2.0868    -0.0173 N.pl3   
   4 N4             1.1570    -0.6390     0.0061 N.2     
   5 C5             2.3155     0.0276    -0.0010 C.2     
   6 C6             2.3478     1.3755    -0.0122 C.2     
   7 N7            -0.9989     2.3008    -0.0112 N.2     
   8 C8            -0.4887     3.5283    -0.0252 C.2     
   9 C9             0.8861     3.4239    -0.0283 C.2     
  10 N10           -1.1861    -0.7177     0.0100 N.pl3   
  11 C11           -1.1896    -2.1845    -0.1073 C.3     
  12 C12           -2.0522    -2.7579     1.0227 C.3     
  13 O13           -3.3301    -2.1170     1.0109 O.3     
  14 C14           -3.2811    -0.7092     1.2547 C.3     
  15 C15           -2.4810    -0.0314     0.1422 C.3     
  16 C16            2.9644     4.5236     0.8100 C.ar    
  17 C17            1.8561     4.5387    -0.0390 C.ar    
  18 C18            1.6795     5.6277    -0.9008 C.ar    
  19 C19            2.6168     6.6455    -0.8721 C.ar    
  20 C20            3.6877     6.5555    -0.0014 C.ar    
  21 N21            3.8288     5.5168     0.8000 N.ar    
  22 C22            4.7105     7.6617     0.0322 C.3     
  23 C23            5.7580     7.4210    -1.0566 C.3     
  24 C24            4.0183     9.0039    -0.2138 C.3     
  25 C25           -1.2771     4.8126    -0.0318 C.3     
  26 H26            3.2438    -0.5242     0.0030 H       
  27 H27            3.2955     1.8936    -0.0174 H       
  28 H28           -1.6072    -2.4747    -1.0714 H       
  29 H29           -0.1709    -2.5622    -0.0194 H       
  30 H30           -2.1812    -3.8300     0.8742 H       
  31 H31           -1.5637    -2.5785     1.9805 H       
  32 H32           -4.2941    -0.3074     1.2730 H       
  33 H33           -2.7971    -0.5223     2.2133 H       
  34 H34           -2.3172     1.0161     0.3953 H       
  35 H35           -3.0310    -0.1011    -0.7963 H       
  36 H36            3.1116     3.6924     1.4836 H       
  37 H37            0.8339     5.6723    -1.5711 H       
  38 H38            2.5133     7.5010    -1.5230 H       
  39 H39            5.1970     7.6772     1.0075 H       
  40 H40            5.2715     7.4055    -2.0319 H       
  41 H41            6.4978     8.2212    -1.0323 H       
  42 H42            6.2511     6.4649    -0.8814 H       
  43 H43            3.5317     8.9884    -1.1890 H       
  44 H44            3.2720     9.1753     0.5619 H       
  45 H45            4.7581     9.8040    -0.1895 H       
  46 H46           -1.4606     5.1315     0.9942 H       
  47 H47           -0.7120     5.5831    -0.5563 H       
  48 H48           -2.2289     4.6520    -0.5381 H       
@<TRIPOS>BOND
   1    1    2 1
   2    1    3 1
   3    1    7 2
   4    2    4 2
   5    2   10 1
   6    3    6 1
   7    3    9 1
   8    4    5 1
   9    5    6 2
  10    5   26 1
  11    6   27 1
  12    7    8 1
  13    8    9 2
  14    8   25 1
  15    9   17 1
  16   10   11 1
  17   10   15 1
  18   11   12 1
  19   11   28 1
  20   11   29 1
  21   12   13 1
  22   12   30 1
  23   12   31 1
  24   13   14 1
  25   14   15 1
  26   14   32 1
  27   14   33 1
  28   15   34 1
  29   15   35 1
  30   16   17 ar
  31   16   21 ar
  32   16   36 1
  33   17   18 ar
  34   18   19 ar
  35   18   37 1
  36   19   20 ar
  37   19   38 1
  38   20   21 ar
  39   20   22 1
  40   22   23 1
  41   22   24 1
  42   22   39 1
  43   23   40 1
  44   23   41 1
  45   23   42 1
  46   24   43 1
  47   24   44 1
  48   24   45 1
  49   25   46 1
  50   25   47 1
  51   25   48 1

#	End of record

