#	Name: ASD01911153
#	Creating user name:	WinNT
#	Creation time:	15. 06. 2019 19:57

#	Modifying user name:	WinNT
#	Modification time:	15. 06. 2019 19:57

#	Program:	/corina/corina34_cracker 3.40 0067  02.08.2006

@<TRIPOS>MOLECULE
ASD01911153
  47   50    0    0    0
SMALL
NO_CHARGES


@<TRIPOS>ATOM
   1 C1            -0.0167     1.3769     0.0096 C.ar    
   2 C2             0.0021    -0.0041     0.0020 C.ar    
   3 C3             1.2148    -0.6805    -0.0132 C.ar    
   4 C4             2.4052     0.0345    -0.0208 C.ar    
   5 C5             2.3798     1.4153    -0.0132 C.ar    
   6 C6             1.1705     2.0860     0.0021 C.ar    
   7 N7             1.2372    -2.0811    -0.0205 N.pl3   
   8 N8             0.3284    -2.9225     0.6337 N.2     
   9 C9             0.6734    -4.1703     0.3941 C.2     
  10 C10            1.8186    -4.1605    -0.4244 C.2     
  11 C11            2.1429    -2.8640    -0.6698 C.2     
  12 C12           -0.0240    -5.3784     0.9002 C.ar    
  13 C13           -1.1529    -5.2478     1.7066 C.ar    
  14 C14           -1.7979    -6.3749     2.1741 C.ar    
  15 C15           -1.3257    -7.6323     1.8436 C.ar    
  16 C16           -0.2055    -7.7678     1.0435 C.ar    
  17 C17            0.4442    -6.6476     0.5660 C.ar    
  18 N18            3.2151    -2.4156    -1.4407 N.am    
  19 C19            4.0442    -3.3042    -2.0233 C.2     
  20 C20            5.2028    -2.8197    -2.8564 C.3     
  21 O21            3.8579    -4.4937    -1.8771 O.2     
  22 O22            5.9281    -3.9422    -3.3622 O.3     
  23 C23            7.0114    -3.6777    -4.1390 C.ar    
  24 C24            7.7615    -4.7202    -4.6635 C.ar    
  25 C25            8.8623    -4.4486    -5.4528 C.ar    
  26 C26            9.2166    -3.1392    -5.7203 C.ar    
  27 C27            8.4708    -2.0984    -5.1983 C.ar    
  28 C28            7.3656    -2.3647    -4.4135 C.ar    
  29 H29           -0.9595     1.9036     0.0169 H       
  30 H30           -0.9254    -0.5573     0.0083 H       
  31 H31            3.3499    -0.4887    -0.0323 H       
  32 H32            3.3053     1.9719    -0.0190 H       
  33 H33            1.1533     3.1658     0.0080 H       
  34 H34            2.3437    -5.0286    -0.7945 H       
  35 H35           -1.5222    -4.2665     1.9655 H       
  36 H36           -2.6727    -6.2748     2.7995 H       
  37 H37           -1.8332    -8.5116     2.2119 H       
  38 H38            0.1592    -8.7519     0.7888 H       
  39 H39            1.3185    -6.7545    -0.0589 H       
  40 H40            3.3641    -1.4643    -1.5576 H       
  41 H41            4.8279    -2.2243    -3.6888 H       
  42 H42            5.8626    -2.2084    -2.2406 H       
  43 H43            7.4854    -5.7432    -4.4546 H       
  44 H44            9.4468    -5.2599    -5.8611 H       
  45 H45           10.0774    -2.9289    -6.3376 H       
  46 H46            8.7500    -1.0764    -5.4081 H       
  47 H47            6.7834    -1.5514    -4.0061 H       
@<TRIPOS>BOND
   1    1    2 ar
   2    1    6 ar
   3    1   29 1
   4    2    3 ar
   5    2   30 1
   6    3    4 ar
   7    3    7 1
   8    4    5 ar
   9    4   31 1
  10    5    6 ar
  11    5   32 1
  12    6   33 1
  13    7    8 1
  14    7   11 1
  15    8    9 2
  16    9   10 1
  17    9   12 1
  18   10   11 2
  19   10   34 1
  20   11   18 1
  21   12   13 ar
  22   12   17 ar
  23   13   14 ar
  24   13   35 1
  25   14   15 ar
  26   14   36 1
  27   15   16 ar
  28   15   37 1
  29   16   17 ar
  30   16   38 1
  31   17   39 1
  32   18   19 am
  33   18   40 1
  34   19   20 1
  35   19   21 2
  36   20   22 1
  37   20   41 1
  38   20   42 1
  39   22   23 1
  40   23   24 ar
  41   23   28 ar
  42   24   25 ar
  43   24   43 1
  44   25   26 ar
  45   25   44 1
  46   26   27 ar
  47   26   45 1
  48   27   28 ar
  49   27   46 1
  50   28   47 1

#	End of record

