#	Name: ASD01190128
#	Creating user name:	WinNT
#	Creation time:	15. 06. 2019 19:07

#	Modifying user name:	WinNT
#	Modification time:	15. 06. 2019 19:07

#	Program:	/corina/corina34_cracker 3.40 0067  02.08.2006

@<TRIPOS>MOLECULE
ASD01190128
  21   22    0    0    0
SMALL
NO_CHARGES


@<TRIPOS>ATOM
   1 C1            -0.0170     1.4055     0.0098 C.2     
   2 C2             0.0021    -0.0041     0.0020 C.2     
   3 C3             1.2373    -0.6556    -0.0133 C.2     
   4 C4             2.4249     0.1083    -0.0205 C.2     
   5 C5             2.3482     1.4539    -0.0126 C.2     
   6 N6             1.1423     2.0911     0.0024 N.am    
   7 N7            -0.9829    -0.9676     0.0067 N.pl3   
   8 C8             0.9365    -2.0929    -0.0177 C.2     
   9 C9            -0.4432    -2.1968    -0.0048 C.2     
  10 O10           -1.0810     2.0030     0.0180 O.2     
  11 C11            1.9002    -3.1921    -0.0335 C.2     
  12 O12            3.0906    -2.9555    -0.0447 O.2     
  13 C13            1.4156    -4.6191    -0.0359 C.3     
  14 F14            1.9020    -5.2787     1.0979 F       
  15 F15            0.0168    -4.6365    -0.0213 F       
  16 F16            1.8781    -5.2667    -1.1865 F       
  17 H17            3.3872    -0.3819    -0.0320 H       
  18 H18            3.2569     2.0374    -0.0177 H       
  19 H19            1.1191     3.0608     0.0078 H       
  20 H20           -1.9352    -0.7832     0.0172 H       
  21 H21           -0.9994    -3.1226    -0.0038 H       
@<TRIPOS>BOND
   1    1    2 1
   2    1    6 am
   3    1   10 2
   4    2    3 2
   5    2    7 1
   6    3    4 1
   7    3    8 1
   8    4    5 2
   9    4   17 1
  10    5    6 1
  11    5   18 1
  12    6   19 1
  13    7    9 1
  14    7   20 1
  15    8    9 2
  16    8   11 1
  17    9   21 1
  18   11   12 2
  19   11   13 1
  20   13   14 1
  21   13   15 1
  22   13   16 1

#	End of record

