#	Name: ASD02560332
#	Creating user name:	WinNT
#	Creation time:	15. 06. 2019 20:25

#	Modifying user name:	WinNT
#	Modification time:	15. 06. 2019 20:25

#	Program:	/corina/corina34_cracker 3.40 0067  02.08.2006

@<TRIPOS>MOLECULE
ASD02560332
  34   36    0    0    0
SMALL
NO_CHARGES


@<TRIPOS>ATOM
   1 C1             0.0055     1.3623     0.2531 C.2     
   2 C2            -0.0128     0.0065    -0.0313 C.2     
   3 C3            -1.1831    -0.6019     0.2120 C.2     
   4 S4            -2.3377     0.5712     0.8318 S.3     
   5 C5            -1.1382     1.8531     0.7294 C.2     
   6 N6            -1.4447    -1.9575     0.0046 N.pl3   
   7 C7             1.2292     2.2169     0.0453 C.3     
   8 C8             1.2137     2.7857    -1.3502 C.ar    
   9 C9             0.6055     4.0040    -1.5941 C.ar    
  10 C10            0.5920     4.5259    -2.8754 C.ar    
  11 C11            1.1860     3.8302    -3.9116 C.ar    
  12 C12            1.7935     2.6127    -3.6686 C.ar    
  13 C13            1.8126     2.0924    -2.3867 C.ar    
  14 C14           -2.7498    -2.4428     0.1199 C.ar    
  15 Cl15          -0.1411     4.8776    -0.2929 Cl      
  16 Cl16           2.5761     0.5635    -2.0815 Cl      
  17 C17           -3.8231    -1.6545    -0.2765 C.ar    
  18 C18           -2.9766    -3.7167     0.6259 C.ar    
  19 C19           -4.2676    -4.1938     0.7383 C.ar    
  20 C20           -5.3350    -3.4044     0.3475 C.ar    
  21 C21           -5.1119    -2.1370    -0.1617 C.ar    
  22 Cl22          -6.9565    -4.0078     0.4897 Cl      
  23 H23            0.8474    -0.5190    -0.4189 H       
  24 H24           -1.3048     2.8837     1.0059 H       
  25 H25           -0.7204    -2.5624    -0.2196 H       
  26 H26            1.2308     3.0314     0.7696 H       
  27 H27            2.1240     1.6092     0.1800 H       
  28 H28            0.1169     5.4769    -3.0660 H       
  29 H29            1.1752     4.2380    -4.9116 H       
  30 H30            2.2568     2.0692    -4.4788 H       
  31 H31           -3.6496    -0.6653    -0.6737 H       
  32 H32           -2.1439    -4.3333     0.9307 H       
  33 H33           -4.4444    -5.1841     1.1312 H       
  34 H34           -5.9468    -1.5231    -0.4656 H       
@<TRIPOS>BOND
   1    1    2 1
   2    1    7 1
   3    1    5 2
   4    2    3 2
   5    2   23 1
   6    3    4 1
   7    3    6 1
   8    4    5 1
   9    5   24 1
  10    6   14 1
  11    6   25 1
  12    7    8 1
  13    7   26 1
  14    7   27 1
  15    8    9 ar
  16    8   13 ar
  17    9   10 ar
  18    9   15 1
  19   10   11 ar
  20   10   28 1
  21   11   12 ar
  22   11   29 1
  23   12   13 ar
  24   12   30 1
  25   13   16 1
  26   14   18 ar
  27   14   17 ar
  28   17   21 ar
  29   17   31 1
  30   18   19 ar
  31   18   32 1
  32   19   20 ar
  33   19   33 1
  34   20   21 ar
  35   20   22 1
  36   21   34 1

#	End of record

