#	Name: ASD01916362
#	Creating user name:	WinNT
#	Creation time:	15. 06. 2019 20:07

#	Modifying user name:	WinNT
#	Modification time:	15. 06. 2019 20:07

#	Program:	/corina/corina34_cracker 3.40 0067  02.08.2006

@<TRIPOS>MOLECULE
ASD01916362
  38   40    0    0    0
SMALL
NO_CHARGES


@<TRIPOS>ATOM
   1 C1            -0.0095     1.5089    -0.0179 C.3     
   2 C2             0.0203    -0.0251    -0.0300 C.3     
   3 C3             0.6652    -0.5322     1.2578 C.3     
   4 C4             2.0207     0.0822     1.4639 C.ar    
   5 C5             2.3789     1.2901     0.8546 C.ar    
   6 C6             1.4272     1.9913    -0.0182 C.2     
   7 N7             2.9065    -0.5209     2.2377 N.ar    
   8 C8             4.1079     0.0065     2.4351 C.ar    
   9 N9             4.4805     1.1512     1.8755 N.ar    
  10 C10            3.6561     1.8172     1.0879 C.ar    
  11 N11            5.0004    -0.6572     3.2503 N.pl3   
  12 O12            1.7785     2.9213    -0.7133 O.2     
  13 C13           -1.4088    -0.5622    -0.1304 C.3     
  14 C14            6.3122    -0.1859     3.3822 C.ar    
  15 C15            6.9738    -0.3035     4.5975 C.ar    
  16 C16            8.2675     0.1617     4.7268 C.ar    
  17 C17            8.9061     0.7468     3.6433 C.ar    
  18 C18            8.2460     0.8647     2.4289 C.ar    
  19 C19            6.9544     0.3944     2.2963 C.ar    
  20 O20           10.1798     1.2055     3.7717 O.3     
  21 C21           10.7762     1.7965     2.6153 C.3     
  22 H22           -0.5238     1.8763    -0.9060 H       
  23 H23           -0.5187     1.8623     0.8787 H       
  24 H24            0.5992    -0.3704    -0.8866 H       
  25 H25            0.0251    -0.2774     2.1024 H       
  26 H26            0.7685    -1.6159     1.2031 H       
  27 H27            3.9600     2.7482     0.6327 H       
  28 H28            4.7194    -1.4507     3.7323 H       
  29 H29           -1.8691    -0.2004    -1.0499 H       
  30 H30           -1.3877    -1.6519    -0.1390 H       
  31 H31           -1.9878    -0.2167     0.7260 H       
  32 H32            6.4764    -0.7583     5.4414 H       
  33 H33            8.7821     0.0704     5.6719 H       
  34 H34            8.7439     1.3203     1.5858 H       
  35 H35            6.4407     0.4859     1.3506 H       
  36 H36           10.1853     2.6570     2.3014 H       
  37 H37           11.7896     2.1192     2.8539 H       
  38 H38           10.8085     1.0642     1.8087 H       
@<TRIPOS>BOND
   1    1    2 1
   2    1    6 1
   3    1   22 1
   4    1   23 1
   5    2    3 1
   6    2   13 1
   7    2   24 1
   8    3    4 1
   9    3   25 1
  10    3   26 1
  11    4    5 ar
  12    4    7 ar
  13    5    6 1
  14    5   10 ar
  15    6   12 2
  16    7    8 ar
  17    8    9 ar
  18    8   11 1
  19    9   10 ar
  20   10   27 1
  21   11   14 1
  22   11   28 1
  23   13   29 1
  24   13   30 1
  25   13   31 1
  26   14   15 ar
  27   14   19 ar
  28   15   16 ar
  29   15   32 1
  30   16   17 ar
  31   16   33 1
  32   17   18 ar
  33   17   20 1
  34   18   19 ar
  35   18   34 1
  36   19   35 1
  37   20   21 1
  38   21   36 1
  39   21   37 1
  40   21   38 1

#	End of record

