#	Name: ASD01811469
#	Creating user name:	WinNT
#	Creation time:	15. 06. 2019 19:26

#	Modifying user name:	WinNT
#	Modification time:	15. 06. 2019 19:26

#	Program:	/corina/corina34_cracker 3.40 0067  02.08.2006

@<TRIPOS>MOLECULE
ASD01811469
  84   89    0    0    0
SMALL
NO_CHARGES


@<TRIPOS>ATOM
   1 C1            -0.9866     1.5506    -1.2336 C.3     
   2 C2            -0.7287     0.0974    -0.9216 C.2     
   3 C3             0.4899    -0.4871    -0.9791 C.2     
   4 C4             1.7615     0.2330    -1.3551 C.3     
   5 C5             1.3977     1.5379    -2.0739 C.3     
   6 N6             0.3254     2.2163    -1.3304 N.am    
   7 C7            -0.9156    -2.0162    -0.3825 C.2     
   8 N8            -1.6215    -0.8569    -0.5430 N.pl3   
   9 N9             0.3500    -1.7722    -0.6498 N.2     
  10 C10            0.5363     3.4159    -0.7533 C.2     
  11 O11            1.6238     3.9504    -0.8429 O.2     
  12 O12           -0.4581     4.0219    -0.0776 O.3     
  13 C13           -1.4782    -3.3228     0.0233 C.ar    
  14 C14           -0.6801    -4.4683    -0.0080 C.ar    
  15 C15           -1.2035    -5.6886     0.3704 C.ar    
  16 C16           -2.5180    -5.7853     0.7824 C.ar    
  17 C17           -3.3269    -4.6476     0.8184 C.ar    
  18 C18           -2.8032    -3.4120     0.4428 C.ar    
  19 C19           -3.0807    -7.1214     1.1936 C.3     
  20 C20            0.7555    -4.3724    -0.4562 C.3     
  21 C21            1.7708    -4.6362     0.6682 C.3     
  22 C22            2.5976    -5.4153    -0.3683 C.3     
  23 C23            1.2795    -5.6551    -1.1233 C.3     
  24 C24           -4.7345    -4.7529     1.2588 C.2     
  25 O25           -5.0074    -5.3426     2.2861 O.2     
  26 N26           -5.7149    -4.1949     0.5213 N.am    
  27 C27           -7.1024    -4.1862     1.0044 C.3     
  28 C28           -8.0036    -4.7975    -0.0731 C.3     
  29 C29           -7.7927    -4.0513    -1.3925 C.3     
  30 C30           -6.3364    -4.2016    -1.8384 C.3     
  31 C31           -5.4155    -3.5785    -0.7783 C.3     
  32 C32           -8.7025    -4.6279    -2.4464 C.ar    
  33 C33           -9.6420    -3.8200    -3.0620 C.ar    
  34 C34          -10.4780    -4.3413    -4.0276 C.ar    
  35 C35          -10.3741    -5.6875    -4.3836 C.ar    
  36 C36           -9.4234    -6.4969    -3.7586 C.ar    
  37 C37           -8.5906    -5.9614    -2.7981 C.ar    
  38 C38          -11.2390    -6.2355    -5.3847 C.1     
  39 N39          -11.9251    -6.6703    -6.1789 N.1     
  40 C40           -0.1596     5.3120     0.5180 C.3     
  41 C41            0.2523     6.2968    -0.5781 C.3     
  42 C42           -1.4016     5.8408     1.2383 C.3     
  43 C43            0.9850     5.1579     1.5215 C.3     
  44 H44           -1.5178     1.6380    -2.1814 H       
  45 H45           -1.5741     2.0031    -0.4348 H       
  46 H46            2.3330     0.4590    -0.4549 H       
  47 H47            2.3551    -0.3961    -2.0184 H       
  48 H48            2.2739     2.1845    -2.1205 H       
  49 H49            1.0551     1.3138    -3.0841 H       
  50 H50           -2.5752    -0.7375    -0.4121 H       
  51 H51           -0.5822    -6.5716     0.3437 H       
  52 H52           -3.4232    -2.5283     0.4730 H       
  53 H53           -2.8644    -7.2981     2.2472 H       
  54 H54           -4.1597    -7.1244     1.0388 H       
  55 H55           -2.6252    -7.9082     0.5923 H       
  56 H56            0.9612    -3.4667    -1.0266 H       
  57 H57            2.2639    -3.7346     1.0316 H       
  58 H58            1.3796    -5.2594     1.4724 H       
  59 H59            3.3078    -4.7955    -0.9156 H       
  60 H60            3.0464    -6.3267     0.0269 H       
  61 H61            0.7540    -6.5568    -0.8089 H       
  62 H62            1.3760    -5.5760    -2.2061 H       
  63 H63           -7.1748    -4.7753     1.9186 H       
  64 H64           -7.4139    -3.1606     1.2025 H       
  65 H65           -7.7501    -5.8494    -0.2055 H       
  66 H66           -9.0463    -4.7097     0.2319 H       
  67 H67           -8.0226    -2.9950    -1.2530 H       
  68 H68           -6.0986    -5.2590    -1.9542 H       
  69 H69           -6.1926    -3.6895    -2.7898 H       
  70 H70           -5.5922    -2.5043    -0.7226 H       
  71 H71           -4.3744    -3.7665    -1.0407 H       
  72 H72           -9.7213    -2.7790    -2.7857 H       
  73 H73          -11.2115    -3.7097    -4.5068 H       
  74 H74           -9.3378    -7.5390    -4.0292 H       
  75 H75           -7.8520    -6.5854    -2.3168 H       
  76 H76           -0.5632     6.4066    -1.2930 H       
  77 H77            0.4763     7.2652    -0.1310 H       
  78 H78            1.1371     5.9200    -1.0912 H       
  79 H79           -1.6950     5.1393     2.0192 H       
  80 H80           -1.1775     6.8093     1.6854 H       
  81 H81           -2.2170     5.9506     0.5234 H       
  82 H82            1.8698     4.7811     1.0084 H       
  83 H83            1.2091     6.1264     1.9687 H       
  84 H84            0.6916     4.4563     2.3024 H       
@<TRIPOS>BOND
   1    1    2 1
   2    1    6 1
   3    1   44 1
   4    1   45 1
   5    2    3 2
   6    2    8 1
   7    3    4 1
   8    3    9 1
   9    4    5 1
  10    4   46 1
  11    4   47 1
  12    5    6 1
  13    5   48 1
  14    5   49 1
  15    6   10 am
  16    7    8 1
  17    7    9 2
  18    7   13 1
  19    8   50 1
  20   10   11 2
  21   10   12 1
  22   12   40 1
  23   13   14 ar
  24   13   18 ar
  25   14   15 ar
  26   14   20 1
  27   15   16 ar
  28   15   51 1
  29   16   17 ar
  30   16   19 1
  31   17   18 ar
  32   17   24 1
  33   18   52 1
  34   19   53 1
  35   19   54 1
  36   19   55 1
  37   20   21 1
  38   20   23 1
  39   20   56 1
  40   21   22 1
  41   21   57 1
  42   21   58 1
  43   22   23 1
  44   22   59 1
  45   22   60 1
  46   23   61 1
  47   23   62 1
  48   24   25 2
  49   24   26 am
  50   26   27 1
  51   26   31 1
  52   27   28 1
  53   27   63 1
  54   27   64 1
  55   28   29 1
  56   28   65 1
  57   28   66 1
  58   29   30 1
  59   29   32 1
  60   29   67 1
  61   30   31 1
  62   30   68 1
  63   30   69 1
  64   31   70 1
  65   31   71 1
  66   32   33 ar
  67   32   37 ar
  68   33   34 ar
  69   33   72 1
  70   34   35 ar
  71   34   73 1
  72   35   36 ar
  73   35   38 1
  74   36   37 ar
  75   36   74 1
  76   37   75 1
  77   38   39 3
  78   40   41 1
  79   40   43 1
  80   40   42 1
  81   41   76 1
  82   41   77 1
  83   41   78 1
  84   42   79 1
  85   42   80 1
  86   42   81 1
  87   43   82 1
  88   43   83 1
  89   43   84 1

#	End of record

