#	Name: ASD03930177
#	Creating user name:	WinNT
#	Creation time:	15. 06. 2019 20:47

#	Modifying user name:	WinNT
#	Modification time:	15. 06. 2019 20:47

#	Program:	/corina/corina34_cracker 3.40 0067  02.08.2006

@<TRIPOS>MOLECULE
ASD03930177
  49   50    0    0    0
SMALL
NO_CHARGES


@<TRIPOS>ATOM
   1 C1            -0.0275     0.5897     2.7630 C.ar    
   2 C2             0.8528     1.0067     3.7480 C.ar    
   3 C3             0.5966     2.1610     4.4698 C.ar    
   4 C4            -0.5402     2.9030     4.2108 C.ar    
   5 C5            -1.4306     2.4876     3.2196 C.ar    
   6 C6            -1.1643     1.3272     2.4914 C.ar    
   7 F7             0.2284    -0.5370     2.0628 F       
   8 F8             1.4594     2.5619     5.4290 F       
   9 C9            -2.6485     3.2769     2.9385 C.2     
  10 N10           -3.5067     2.8735     1.9807 N.am    
  11 O11           -2.8759     4.2897     3.5711 O.2     
  12 C12           -4.7059     3.5645     1.7803 C.ar    
  13 C13           -4.7494     4.9436     1.9394 C.ar    
  14 C14           -5.9353     5.6230     1.7407 C.ar    
  15 C15           -7.0785     4.9318     1.3837 C.ar    
  16 C16           -7.0387     3.5586     1.2250 C.ar    
  17 C17           -5.8546     2.8739     1.4161 C.ar    
  18 C18           -8.3708     5.6764     1.1678 C.3     
  19 C19           -9.4272     5.1590     2.1461 C.3     
  20 C20           -8.8530     5.4555    -0.2674 C.3     
  21 N21          -10.6458     5.9621     2.0187 N.am    
  22 S22          -12.0654     5.4234     2.6797 S.o2    
  23 C23          -12.4579     3.9192     1.7448 C.3     
  24 C24          -13.7604     3.3154     2.2736 C.3     
  25 C25          -12.6214     4.2673     0.2639 C.3     
  26 O26          -11.7273     5.1022     4.0220 O.2     
  27 O27          -13.0012     6.4516     2.3858 O.2     
  28 H28            1.7421     0.4295     3.9541 H       
  29 H29           -0.7393     3.8023     4.7746 H       
  30 H30           -1.8499     1.0013     1.7232 H       
  31 H31           -3.2926     2.1039     1.4305 H       
  32 H32           -3.8570     5.4840     2.2185 H       
  33 H33           -5.9699     6.6953     1.8646 H       
  34 H34           -7.9334     3.0216     0.9465 H       
  35 H35           -5.8241     1.8015     1.2920 H       
  36 H36           -8.2093     6.7410     1.3370 H       
  37 H37           -9.6533     4.1171     1.9191 H       
  38 H38           -9.0470     5.2346     3.1648 H       
  39 H39           -9.0144     4.3909    -0.4366 H       
  40 H40           -9.7876     5.9941    -0.4236 H       
  41 H41           -8.1003     5.8241    -0.9643 H       
  42 H42          -10.6211     6.8094     1.5472 H       
  43 H43          -11.6493     3.1976     1.8613 H       
  44 H44          -14.5690     4.0370     2.1571 H       
  45 H45          -13.9963     2.4116     1.7118 H       
  46 H46          -13.6439     3.0674     3.3286 H       
  47 H47          -12.7733     3.3529    -0.3096 H       
  48 H48          -13.4832     4.9227     0.1377 H       
  49 H49          -11.7243     4.7742    -0.0914 H       
@<TRIPOS>BOND
   1    1    2 ar
   2    1    7 1
   3    1    6 ar
   4    2    3 ar
   5    2   28 1
   6    3    4 ar
   7    3    8 1
   8    4    5 ar
   9    4   29 1
  10    5    6 ar
  11    5    9 1
  12    6   30 1
  13    9   10 am
  14    9   11 2
  15   10   12 1
  16   10   31 1
  17   12   13 ar
  18   12   17 ar
  19   13   14 ar
  20   13   32 1
  21   14   15 ar
  22   14   33 1
  23   15   16 ar
  24   15   18 1
  25   16   17 ar
  26   16   34 1
  27   17   35 1
  28   18   19 1
  29   18   20 1
  30   18   36 1
  31   19   21 1
  32   19   37 1
  33   19   38 1
  34   20   39 1
  35   20   40 1
  36   20   41 1
  37   21   22 am
  38   21   42 1
  39   22   23 1
  40   22   26 2
  41   22   27 2
  42   23   24 1
  43   23   25 1
  44   23   43 1
  45   24   44 1
  46   24   45 1
  47   24   46 1
  48   25   47 1
  49   25   48 1
  50   25   49 1

#	End of record

