#	Name: ASD01151046
#	Creating user name:	WinNT
#	Creation time:	15. 06. 2019 19:05

#	Modifying user name:	WinNT
#	Modification time:	15. 06. 2019 19:05

#	Program:	/corina/corina34_cracker 3.40 0067  02.08.2006

@<TRIPOS>MOLECULE
ASD01151046
  30   31    0    0    0
SMALL
NO_CHARGES


@<TRIPOS>ATOM
   1 N1             0.0537    -1.1340    -0.1764 N.1     
   2 C2             0.0272     0.0003    -0.1194 C.1     
   3 C3            -0.0061     1.4301    -0.0476 C.2     
   4 N4             1.0354     2.2349    -0.1414 N.2     
   5 N5             0.5828     3.5550    -0.0222 N.pl3   
   6 C6            -0.7687     3.5245     0.1472 C.2     
   7 C7            -1.1591     2.2237     0.1297 C.2     
   8 S8            -2.8094     1.6325     0.3071 S.o     
   9 O9            -3.4535     2.6880     1.0073 O.2     
  10 C10           -3.4120     1.5853    -1.4032 C.3     
  11 F11           -2.6096     0.7218    -2.1567 F       
  12 F12           -4.7337     1.1268    -1.4194 F       
  13 F13           -3.3576     2.8708    -1.9525 F       
  14 N14           -1.6013     4.6292     0.3043 N.pl3   
  15 C15            1.3807     4.7061    -0.0686 C.ar    
  16 C16            2.4472     4.8500     0.8103 C.ar    
  17 Cl17           2.7934     3.6037     1.9681 Cl      
  18 C18            3.2324     5.9866     0.7614 C.ar    
  19 C19            2.9574     6.9798    -0.1605 C.ar    
  20 C20            1.8966     6.8402    -1.0364 C.ar    
  21 C21            1.1109     5.7036    -0.9974 C.ar    
  22 Cl22          -0.2203     5.5291    -2.0979 Cl      
  23 C23            3.8155     8.2176    -0.2103 C.3     
  24 F24            4.8782     8.0129    -1.0968 F       
  25 F25            3.0460     9.3012    -0.6472 F       
  26 F26            4.3189     8.4878     1.0667 F       
  27 H27           -1.2184     5.5148     0.4047 H       
  28 H28           -2.5643     4.5133     0.3134 H       
  29 H29            4.0615     6.0992     1.4443 H       
  30 H30            1.6845     7.6181    -1.7549 H       
@<TRIPOS>BOND
   1    1    2 3
   2    2    3 1
   3    3    4 2
   4    3    7 1
   5    4    5 1
   6    5    6 1
   7    5   15 1
   8    6    7 2
   9    6   14 1
  10    7    8 1
  11    8    9 2
  12    8   10 1
  13   10   11 1
  14   10   12 1
  15   10   13 1
  16   14   27 1
  17   14   28 1
  18   15   16 ar
  19   15   21 ar
  20   16   17 1
  21   16   18 ar
  22   18   19 ar
  23   18   29 1
  24   19   20 ar
  25   19   23 1
  26   20   21 ar
  27   20   30 1
  28   21   22 1
  29   23   24 1
  30   23   25 1
  31   23   26 1

#	End of record

