#	Name: ASD01813044
#	Creating user name:	WinNT
#	Creation time:	15. 06. 2019 19:29

#	Modifying user name:	WinNT
#	Modification time:	15. 06. 2019 19:29

#	Program:	/corina/corina34_cracker 3.40 0067  02.08.2006

@<TRIPOS>MOLECULE
ASD01813044
  56   59    0    0    0
SMALL
NO_CHARGES


@<TRIPOS>ATOM
   1 C1            -1.8443     0.6146    -0.6041 C.2     
   2 C2            -2.0014    -0.7029    -0.3927 C.2     
   3 N3            -0.9259    -1.5455    -0.4002 N.pl3   
   4 C4             0.3316    -1.1332    -0.5996 C.2     
   5 C5             0.5971     0.2045    -0.8158 C.2     
   6 C6            -0.5387     1.1354    -0.8248 C.2     
   7 O7            -0.3659     2.3296    -1.0099 O.2     
   8 C8            -1.1614    -2.9742    -0.1778 C.3     
   9 C9            -0.9641    -3.2947     1.2814 C.ar    
  10 C10           -2.9907     1.5902    -0.6276 C.3     
  11 C11           -4.2276     0.9884     0.0358 C.3     
  12 C12           -4.4737    -0.3951    -0.5787 C.3     
  13 C13           -3.3505    -1.3251    -0.1279 C.3     
  14 C14           -2.0538    -3.3308     2.1325 C.ar    
  15 C15           -1.8789    -3.6238     3.4698 C.ar    
  16 C16           -0.6016    -3.8840     3.9620 C.ar    
  17 C17            0.4926    -3.8468     3.1001 C.ar    
  18 C18            0.3055    -3.5574     1.7636 C.ar    
  19 C19           -0.4072    -4.1991     5.3991 C.ar    
  20 C20           -1.5019    -4.2357     6.2605 C.ar    
  21 C21           -1.3195    -4.5291     7.5975 C.ar    
  22 C22           -0.0529    -4.7871     8.0857 C.ar    
  23 C23            1.0445    -4.7528     7.2338 C.ar    
  24 C24            0.8689    -4.4647     5.8890 C.ar    
  25 O25           -2.6124     2.7775     0.0719 O.3     
  26 N26            2.3258    -5.0142     7.7321 N.am    
  27 C27            2.4896    -5.8872     8.7457 C.2     
  28 C28            3.8523    -6.0833     9.3586 C.3     
  29 O29            1.5402    -6.5151     9.1646 O.2     
  30 C30            1.9720     0.6809    -1.0344 C.2     
  31 O31            2.8968    -0.1076    -1.0266 O.2     
  32 O32            2.2058     1.9918    -1.2433 O.3     
  33 H33            1.1408    -1.8485    -0.5911 H       
  34 H34           -2.1813    -3.2241    -0.4700 H       
  35 H35           -0.4594    -3.5555    -0.7757 H       
  36 H36           -3.2254     1.8431    -1.6615 H       
  37 H37           -4.0589     0.8900     1.1082 H       
  38 H38           -5.0905     1.6297    -0.1442 H       
  39 H39           -5.4327    -0.7841    -0.2364 H       
  40 H40           -4.4741    -0.3195    -1.6661 H       
  41 H41           -3.4243    -2.2668    -0.6719 H       
  42 H42           -3.4525    -1.5195     0.9398 H       
  43 H43           -3.0434    -3.1289     1.7499 H       
  44 H44           -2.7303    -3.6509     4.1336 H       
  45 H45            1.4848    -4.0474     3.4765 H       
  46 H46            1.1528    -3.5287     1.0946 H       
  47 H47           -2.4933    -4.0342     5.8825 H       
  48 H48           -2.1692    -4.5565     8.2635 H       
  49 H49            0.0847    -5.0157     9.1323 H       
  50 H50            1.7204    -4.4375     5.2253 H       
  51 H51           -3.3022     3.4546     0.0990 H       
  52 H52            3.0961    -4.5670     7.3479 H       
  53 H53            4.5732    -5.4391     8.8552 H       
  54 H54            3.8145    -5.8282    10.4177 H       
  55 H55            4.1548    -7.1244     9.2462 H       
  56 H56            3.1253     2.2571    -1.3821 H       
@<TRIPOS>BOND
   1    1    2 2
   2    1   10 1
   3    1    6 1
   4    2    3 1
   5    2   13 1
   6    3    4 1
   7    3    8 1
   8    4    5 2
   9    4   33 1
  10    5    6 1
  11    5   30 1
  12    6    7 2
  13    8    9 1
  14    8   34 1
  15    8   35 1
  16    9   14 ar
  17    9   18 ar
  18   10   11 1
  19   10   25 1
  20   10   36 1
  21   11   12 1
  22   11   37 1
  23   11   38 1
  24   12   13 1
  25   12   39 1
  26   12   40 1
  27   13   41 1
  28   13   42 1
  29   14   15 ar
  30   14   43 1
  31   15   16 ar
  32   15   44 1
  33   16   17 ar
  34   16   19 1
  35   17   18 ar
  36   17   45 1
  37   18   46 1
  38   19   20 ar
  39   19   24 ar
  40   20   21 ar
  41   20   47 1
  42   21   22 ar
  43   21   48 1
  44   22   23 ar
  45   22   49 1
  46   23   24 ar
  47   23   26 1
  48   24   50 1
  49   25   51 1
  50   26   27 am
  51   26   52 1
  52   27   28 1
  53   27   29 2
  54   28   53 1
  55   28   54 1
  56   28   55 1
  57   30   31 2
  58   30   32 1
  59   32   56 1

#	End of record

