#	Name: ASD03331237
#	Creating user name:	WinNT
#	Creation time:	15. 06. 2019 20:38

#	Modifying user name:	WinNT
#	Modification time:	15. 06. 2019 20:38

#	Program:	/corina/corina34_cracker 3.40 0067  02.08.2006

@<TRIPOS>MOLECULE
ASD03331237
  47   49    0    0    0
SMALL
NO_CHARGES


@<TRIPOS>ATOM
   1 N1            -0.0636     1.4787    -0.5487 N.am    
   2 C2             0.0866     0.1441     0.0469 C.3     
   3 C3             1.2376     0.1816     1.0571 C.3     
   4 C4             2.4987     0.7079     0.3682 C.3     
   5 C5             2.2508     2.1319    -0.1347 C.3     
   6 C6             1.1113     2.1165    -1.1584 C.3     
   7 C7            -1.2576     2.1038    -0.5409 C.2     
   8 O8            -1.3488     3.2454    -0.9492 O.2     
   9 N9            -2.3505     1.4634    -0.0806 N.am    
  10 C10           -3.5660     2.1474     0.0340 C.ar    
  11 C11           -4.7642     1.4762    -0.1715 C.ar    
  12 C12           -5.9621     2.1541    -0.0573 C.ar    
  13 C13           -5.9692     3.4996     0.2613 C.ar    
  14 C14           -4.7777     4.1709     0.4666 C.ar    
  15 C15           -3.5767     3.4975     0.3590 C.ar    
  16 C16            3.6593     0.7143     1.3651 C.3     
  17 C17            4.9277     1.1152     0.6570 C.ar    
  18 C18            5.2869     2.4481     0.5840 C.ar    
  19 C19            6.4503     2.8158    -0.0657 C.ar    
  20 C20            7.2548     1.8506    -0.6419 C.ar    
  21 C21            6.8962     0.5177    -0.5681 C.ar    
  22 C22            5.7349     0.1495     0.0853 C.ar    
  23 C23           -7.2781     4.2362     0.3847 C.3     
  24 H24           -0.8364    -0.1353     0.5549 H       
  25 H25            0.3100    -0.5819    -0.7348 H       
  26 H26            0.9738     0.8397     1.8850 H       
  27 H27            1.4225    -0.8237     1.4356 H       
  28 H28            2.7479     0.0633    -0.4748 H       
  29 H29            1.9774     2.7716     0.7044 H       
  30 H30            3.1568     2.5147    -0.6046 H       
  31 H31            1.4183     1.5513    -2.0385 H       
  32 H32            0.8643     3.1385    -1.4458 H       
  33 H33           -2.2946     0.5284     0.1714 H       
  34 H34           -4.7593     0.4254    -0.4208 H       
  35 H35           -6.8943     1.6327    -0.2174 H       
  36 H36           -4.7866     5.2218     0.7153 H       
  37 H37           -2.6466     4.0212     0.5238 H       
  38 H38            3.4485     1.4257     2.1636 H       
  39 H39            3.7795    -0.2826     1.7892 H       
  40 H40            4.6583     3.2021     1.0342 H       
  41 H41            6.7305     3.8572    -0.1233 H       
  42 H42            8.1635     2.1380    -1.1501 H       
  43 H43            7.5246    -0.2364    -1.0186 H       
  44 H44            5.4547    -0.8919     0.1429 H       
  45 H45           -7.6328     4.1770     1.4137 H       
  46 H46           -7.1343     5.2811     0.1095 H       
  47 H47           -8.0139     3.7834    -0.2799 H       
@<TRIPOS>BOND
   1    1    2 1
   2    1    6 1
   3    1    7 am
   4    2    3 1
   5    2   24 1
   6    2   25 1
   7    3    4 1
   8    3   26 1
   9    3   27 1
  10    4    5 1
  11    4   16 1
  12    4   28 1
  13    5    6 1
  14    5   29 1
  15    5   30 1
  16    6   31 1
  17    6   32 1
  18    7    8 2
  19    7    9 am
  20    9   10 1
  21    9   33 1
  22   10   11 ar
  23   10   15 ar
  24   11   12 ar
  25   11   34 1
  26   12   13 ar
  27   12   35 1
  28   13   14 ar
  29   13   23 1
  30   14   15 ar
  31   14   36 1
  32   15   37 1
  33   16   17 1
  34   16   38 1
  35   16   39 1
  36   17   18 ar
  37   17   22 ar
  38   18   19 ar
  39   18   40 1
  40   19   20 ar
  41   19   41 1
  42   20   21 ar
  43   20   42 1
  44   21   22 ar
  45   21   43 1
  46   22   44 1
  47   23   45 1
  48   23   46 1
  49   23   47 1

#	End of record

