#	Name: ASD01881281
#	Creating user name:	WinNT
#	Creation time:	15. 06. 2019 19:42

#	Modifying user name:	WinNT
#	Modification time:	15. 06. 2019 19:42

#	Program:	/corina/corina34_cracker 3.40 0067  02.08.2006

@<TRIPOS>MOLECULE
ASD01881281
  58   61    0    0    0
SMALL
NO_CHARGES


@<TRIPOS>ATOM
   1 C1            -0.0162     1.3398     0.0094 C.2     
   2 N2             0.0021    -0.0041     0.0020 N.am    
   3 C3             1.3975    -0.4575    -0.0137 C.3     
   4 C4             2.2454     0.7902    -0.0151 C.ar    
   5 C5             3.6005     1.0048    -0.0265 C.ar    
   6 C6             4.0976     2.3067    -0.0239 C.ar    
   7 C7             3.2195     3.3877    -0.0092 C.ar    
   8 C8             1.8603     3.1762     0.0027 C.ar    
   9 C9             1.3569     1.8711    -0.0008 C.ar    
  10 O10           -1.0238     2.0203     0.0181 O.2     
  11 C11           -1.1772    -0.8732     0.0090 C.3     
  12 C12           -1.6017    -1.1685    -1.4309 C.3     
  13 C13           -2.8333    -2.0762    -1.4236 C.3     
  14 C14           -3.2578    -2.3716    -2.8635 C.3     
  15 N15            5.4705     2.5266    -0.0354 N.pl3   
  16 C16            6.3943     1.3896    -0.0503 C.3     
  17 C17            6.2323     4.4855     1.1617 C.ar    
  18 C18            5.9702     3.8349    -0.0327 C.ar    
  19 C19            6.2132     4.5058    -1.2375 C.ar    
  20 C20            6.7106     5.8051    -1.1791 C.ar    
  21 C21            6.9444     6.3807     0.0536 C.ar    
  22 N22            6.7041     5.7182     1.1691 N.ar    
  23 N23            5.9642     3.8891    -2.4631 N.pl3   
  24 C24            6.2254     4.6092    -3.7119 C.3     
  25 C25            5.8757     3.7273    -4.8828 C.ar    
  26 C26            4.5970     3.7500    -5.4076 C.ar    
  27 C27            4.2762     2.9410    -6.4816 C.ar    
  28 C28            5.2343     2.1097    -7.0312 C.ar    
  29 C29            6.5132     2.0877    -6.5071 C.ar    
  30 C30            6.8352     2.8999    -5.4358 C.ar    
  31 H31            1.6082    -1.0527     0.8747 H       
  32 H32            1.5911    -1.0432    -0.9124 H       
  33 H33            4.2809     0.1661    -0.0372 H       
  34 H34            3.6072     4.3957    -0.0068 H       
  35 H35            1.1825     4.0170     0.0147 H       
  36 H36           -0.9368    -1.8078     0.5159 H       
  37 H37           -1.9927    -0.3749     0.5333 H       
  38 H38           -1.8421    -0.2340    -1.9378 H       
  39 H39           -0.7862    -1.6668    -1.9552 H       
  40 H40           -2.5929    -3.0108    -0.9167 H       
  41 H41           -3.6488    -1.5780    -0.8993 H       
  42 H42           -3.4983    -1.4370    -3.3704 H       
  43 H43           -2.4424    -2.8699    -3.3878 H       
  44 H44           -4.1353    -3.0182    -2.8583 H       
  45 H45            6.6138     1.1134    -1.0816 H       
  46 H46            7.3188     1.6661     0.4565 H       
  47 H47            5.9375     0.5436     0.4630 H       
  48 H48            6.0447     3.9799     2.0975 H       
  49 H49            6.9111     6.3553    -2.0865 H       
  50 H50            7.3302     7.3881     0.1057 H       
  51 H51            5.6179     2.9834    -2.4888 H       
  52 H52            5.6177     5.5135    -3.7438 H       
  53 H53            7.2804     4.8784    -3.7622 H       
  54 H54            3.8485     4.3994    -4.9782 H       
  55 H55            3.2770     2.9582    -6.8911 H       
  56 H56            4.9834     1.4772    -7.8699 H       
  57 H57            7.2616     1.4380    -6.9362 H       
  58 H58            7.8354     2.8854    -5.0286 H       
@<TRIPOS>BOND
   1    1    2 am
   2    1    9 1
   3    1   10 2
   4    2    3 1
   5    2   11 1
   6    3    4 1
   7    3   31 1
   8    3   32 1
   9    4    5 ar
  10    4    9 ar
  11    5    6 ar
  12    5   33 1
  13    6    7 ar
  14    6   15 1
  15    7    8 ar
  16    7   34 1
  17    8    9 ar
  18    8   35 1
  19   11   12 1
  20   11   36 1
  21   11   37 1
  22   12   13 1
  23   12   38 1
  24   12   39 1
  25   13   14 1
  26   13   40 1
  27   13   41 1
  28   14   42 1
  29   14   43 1
  30   14   44 1
  31   15   16 1
  32   15   18 1
  33   16   45 1
  34   16   46 1
  35   16   47 1
  36   17   18 ar
  37   17   22 ar
  38   17   48 1
  39   18   19 ar
  40   19   20 ar
  41   19   23 1
  42   20   21 ar
  43   20   49 1
  44   21   22 ar
  45   21   50 1
  46   23   24 1
  47   23   51 1
  48   24   25 1
  49   24   52 1
  50   24   53 1
  51   25   26 ar
  52   25   30 ar
  53   26   27 ar
  54   26   54 1
  55   27   28 ar
  56   27   55 1
  57   28   29 ar
  58   28   56 1
  59   29   30 ar
  60   29   57 1
  61   30   58 1

#	End of record

