#	Name: ASD01208933
#	Creating user name:	WinNT
#	Creation time:	15. 06. 2019 19:10

#	Modifying user name:	WinNT
#	Modification time:	15. 06. 2019 19:10

#	Program:	/corina/corina34_cracker 3.40 0067  02.08.2006

@<TRIPOS>MOLECULE
ASD01208933
  65   68    0    0    0
SMALL
NO_CHARGES


@<TRIPOS>ATOM
   1 S1             0.3191     1.7377     0.3654 S.3     
   2 C2             0.2335     0.0315     0.3096 C.2     
   3 N3             1.4264    -0.4827     0.2308 N.2     
   4 C4             2.4375     0.3478     0.2087 C.2     
   5 C5             2.0772     1.6652     0.2734 C.2     
   6 C6             2.9885     2.8100     0.2665 C.2     
   7 O7             4.1911     2.6310     0.3278 O.2     
   8 N8             2.4965     4.0625     0.1922 N.am    
   9 C9             3.3960     5.2117     0.3209 C.3     
  10 C10            1.0622     4.2749    -0.0172 C.3     
  11 C11           -0.8956    -2.0464     0.2945 C.2     
  12 C12           -2.1493    -2.8285     0.3314 C.ar    
  13 C13           -2.1062    -4.2226     0.2800 C.ar    
  14 C14           -3.2831    -4.9516     0.3154 C.ar    
  15 C15           -4.5040    -4.2982     0.4018 C.ar    
  16 C16           -4.5517    -2.9125     0.4527 C.ar    
  17 C17           -3.3788    -2.1756     0.4236 C.ar    
  18 O18            0.1748    -2.6172     0.2192 O.2     
  19 N19           -0.9395    -0.7003     0.3442 N.am    
  20 O20           -5.7501    -2.2774     0.5368 O.3     
  21 C21           -6.2311    -1.6728    -0.5802 C.ar    
  22 C22           -7.4963    -1.0993    -0.5672 C.ar    
  23 C23           -7.9879    -0.4849    -1.6986 C.ar    
  24 C24           -7.2124    -0.4390    -2.8588 C.ar    
  25 C25           -5.9410    -1.0162    -2.8677 C.ar    
  26 C26           -5.4544    -1.6246    -1.7309 C.ar    
  27 O27           -7.0999     0.3357    -5.2571 O.3     
  28 C28           -7.7359     0.2183    -4.0743 C.2     
  29 N29           -8.9072     0.7970    -4.2036 N.2     
  30 N30           -9.0217     1.2606    -5.3983 N.2     
  31 C31           -7.9377     0.9988    -6.0732 C.2     
  32 C32           -7.6717     1.3720    -7.5089 C.3     
  33 O33           -3.2421    -6.3092     0.2649 O.3     
  34 C34           -4.2888    -8.3614    -0.4654 C.3     
  35 C35           -4.4942    -6.9936     0.1887 C.3     
  36 C36           -5.0591    -7.1820     1.5981 C.3     
  37 O37           -3.4652    -9.1724     0.3748 O.3     
  38 C38           -3.2103   -10.4781    -0.1468 C.3     
  39 H39            3.4651     0.0216     0.1452 H       
  40 H40            3.7673     5.4946    -0.6641 H       
  41 H41            2.8544     6.0497     0.7595 H       
  42 H42            4.2357     4.9457     0.9630 H       
  43 H43            0.5437     4.2237     0.9402 H       
  44 H44            0.9017     5.2555    -0.4653 H       
  45 H45            0.6740     3.5035    -0.6823 H       
  46 H46           -1.1563    -4.7321     0.2124 H       
  47 H47           -5.4199    -4.8698     0.4292 H       
  48 H48           -3.4163    -1.0971     0.4681 H       
  49 H49           -1.7937    -0.2447     0.4043 H       
  50 H50           -8.0956    -1.1352     0.3305 H       
  51 H51           -8.9719    -0.0399    -1.6880 H       
  52 H52           -5.3384    -0.9831    -3.7634 H       
  53 H53           -4.4697    -2.0680    -1.7359 H       
  54 H54           -8.0145     0.5697    -8.1623 H       
  55 H55           -8.2062     2.2907    -7.7505 H       
  56 H56           -6.6021     1.5254    -7.6522 H       
  57 H57           -5.2550    -8.8464    -0.6044 H       
  58 H58           -3.8045    -8.2322    -1.4333 H       
  59 H59           -5.1932    -6.4071    -0.4075 H       
  60 H60           -5.2055    -6.2076     2.0641 H       
  61 H61           -6.0142    -7.7041     1.5400 H       
  62 H62           -4.3601    -7.7685     2.1943 H       
  63 H63           -4.1541   -11.0071    -0.2792 H       
  64 H64           -2.7036   -10.3928    -1.1081 H       
  65 H65           -2.5787   -11.0304     0.5491 H       
@<TRIPOS>BOND
   1    1    2 1
   2    1    5 1
   3    2    3 2
   4    2   19 1
   5    3    4 1
   6    4    5 2
   7    4   39 1
   8    5    6 1
   9    6    7 2
  10    6    8 am
  11    8    9 1
  12    8   10 1
  13    9   40 1
  14    9   41 1
  15    9   42 1
  16   10   43 1
  17   10   44 1
  18   10   45 1
  19   11   12 1
  20   11   18 2
  21   11   19 am
  22   12   13 ar
  23   12   17 ar
  24   13   14 ar
  25   13   46 1
  26   14   15 ar
  27   14   33 1
  28   15   16 ar
  29   15   47 1
  30   16   17 ar
  31   16   20 1
  32   17   48 1
  33   19   49 1
  34   20   21 1
  35   21   22 ar
  36   21   26 ar
  37   22   23 ar
  38   22   50 1
  39   23   24 ar
  40   23   51 1
  41   24   25 ar
  42   24   28 1
  43   25   26 ar
  44   25   52 1
  45   26   53 1
  46   27   28 1
  47   27   31 1
  48   28   29 2
  49   29   30 1
  50   30   31 2
  51   31   32 1
  52   32   54 1
  53   32   55 1
  54   32   56 1
  55   33   35 1
  56   34   35 1
  57   34   37 1
  58   34   57 1
  59   34   58 1
  60   35   36 1
  61   35   59 1
  62   36   60 1
  63   36   61 1
  64   36   62 1
  65   37   38 1
  66   38   63 1
  67   38   64 1
  68   38   65 1

#	End of record

