#	Name: ASD01560034
#	Creating user name:	WinNT
#	Creation time:	15. 06. 2019 19:22

#	Modifying user name:	WinNT
#	Modification time:	15. 06. 2019 19:22

#	Program:	/corina/corina34_cracker 3.40 0067  02.08.2006

@<TRIPOS>MOLECULE
ASD01560034
  42   45    0    0    0
SMALL
NO_CHARGES


@<TRIPOS>ATOM
   1 C1            -0.0173     1.4248     0.0099 C.3     
   2 O2             0.0021    -0.0041     0.0020 O.3     
   3 C3             0.6257    -0.6182     1.0413 C.ar    
   4 C4             0.6806    -2.0044     1.0949 C.ar    
   5 C5             1.3129    -2.6305     2.1485 C.ar    
   6 C6             1.8970    -1.8704     3.1600 C.ar    
   7 C7             1.8403    -0.4790     3.1035 C.ar    
   8 C8             1.2116     0.1417     2.0445 C.ar    
   9 C9             2.5777    -2.5412     4.2953 C.2     
  10 C10            3.2034    -1.8945     5.3741 C.2     
  11 C11            3.7091    -2.8690     6.2059 C.2     
  12 N12            3.3985    -4.0834     5.6464 N.am    
  13 N13            2.6914    -3.8428     4.4631 N.2     
  14 C14            3.7808    -5.2184     6.2647 C.2     
  15 O15            3.5118    -6.2998     5.7786 O.2     
  16 N16            4.4638    -5.1478     7.4253 N.am    
  17 C17            4.7677    -3.9255     7.9736 C.2     
  18 N18            4.3972    -2.8160     7.3734 N.2     
  19 S19            5.6605    -3.8441     9.4905 S.3     
  20 C20            5.7571    -2.0491     9.7024 C.3     
  21 C21            6.5016    -1.7328    10.9739 C.2     
  22 N22            5.8926    -1.9034    12.1886 N.am    
  23 C23            6.5488    -1.6238    13.3293 C.2     
  24 O24            5.9888    -1.7822    14.3970 O.2     
  25 N25            7.8163    -1.1717    13.3058 N.am    
  26 C26            8.4516    -0.9901    12.1304 C.2     
  27 O27            9.5984    -0.5807    12.1085 O.2     
  28 C28            7.7746    -1.2848    10.9215 C.2     
  29 Cl29           8.5665    -1.0617     9.3928 Cl      
  30 H30            1.0053     1.8021     0.0021 H       
  31 H31           -0.5445     1.7859    -0.8732 H       
  32 H32           -0.5275     1.7763     0.9067 H       
  33 H33            0.2275    -2.5930     0.3109 H       
  34 H34            1.3550    -3.7089     2.1899 H       
  35 H35            2.2921     0.1126     3.8860 H       
  36 H36            1.1674     1.2199     2.0002 H       
  37 H37            3.2754    -0.8273     5.5237 H       
  38 H38            4.7408    -5.9618     7.8741 H       
  39 H39            6.2836    -1.6110     8.8545 H       
  40 H40            4.7503    -1.6352     9.7583 H       
  41 H41            4.9796    -2.2286    12.2268 H       
  42 H42            8.2746    -0.9754    14.1378 H       
@<TRIPOS>BOND
   1    1    2 1
   2    1   30 1
   3    1   31 1
   4    1   32 1
   5    2    3 1
   6    3    4 ar
   7    3    8 ar
   8    4    5 ar
   9    4   33 1
  10    5    6 ar
  11    5   34 1
  12    6    7 ar
  13    6    9 1
  14    7    8 ar
  15    7   35 1
  16    8   36 1
  17    9   10 1
  18    9   13 2
  19   10   11 2
  20   10   37 1
  21   11   12 1
  22   11   18 1
  23   12   13 1
  24   12   14 am
  25   14   15 2
  26   14   16 am
  27   16   17 1
  28   16   38 1
  29   17   18 2
  30   17   19 1
  31   19   20 1
  32   20   21 1
  33   20   39 1
  34   20   40 1
  35   21   22 1
  36   21   28 2
  37   22   23 am
  38   22   41 1
  39   23   24 2
  40   23   25 am
  41   25   26 am
  42   25   42 1
  43   26   27 2
  44   26   28 1
  45   28   29 1

#	End of record

