#	Name: ASD01028094
#	Creating user name:	WinNT
#	Creation time:	15. 06. 2019 18:56

#	Modifying user name:	WinNT
#	Modification time:	15. 06. 2019 18:56

#	Program:	/corina/corina34_cracker 3.40 0067  02.08.2006

@<TRIPOS>MOLECULE
ASD01028094
  79   84    0    0    0
SMALL
NO_CHARGES


@<TRIPOS>ATOM
   1 C1             0.1169     1.4295     0.0349 C.3     
   2 C2             0.1167    -0.0995     0.0340 C.3     
   3 C3            -1.2926    -0.6114     0.3376 C.3     
   4 C4             2.2056     1.6808     1.3836 C.3     
   5 C5             1.5484     1.9672     0.0366 C.3     
   6 N6             2.6345     2.9557     2.0177 N.3     
   7 N7             0.3466     1.7483     4.4259 N.pl3   
   8 C8             1.0780     2.8017     5.0088 C.ar    
   9 C9             1.6267     3.7389     4.1311 C.ar    
  10 C10            1.4480     3.5771     2.6483 C.3     
  11 C11            1.2986     2.9163     6.3715 C.ar    
  12 C12            1.9940     4.0147     6.8658 C.ar    
  13 C13            2.4876     4.9740     5.9919 C.ar    
  14 C14            2.3094     4.8306     4.6314 C.ar    
  15 O15           -1.2432    -1.7075     1.2515 O.3     
  16 C16           -1.5366    -1.4481     2.5523 C.ar    
  17 C17           -0.8999    -0.4029     3.1659 C.ar    
  18 C18           -1.1834    -0.1019     4.5008 C.ar    
  19 C19           -0.5518     0.9875     5.1667 C.ar    
  20 N20           -0.8731     1.2123     6.4216 N.ar    
  21 O21            0.9746     2.1053     7.4166 O.3     
  22 C22            1.3387     2.7789     8.6246 C.3     
  23 O23            2.0685     3.9411     8.2230 O.3     
  24 C24           -2.4647    -2.2274     3.2544 C.ar    
  25 C25           -2.7557    -1.9525     4.5749 C.ar    
  26 C26           -2.1201    -0.8830     5.2183 C.ar    
  27 N27           -2.3655    -0.5640     6.4988 N.ar    
  28 C28           -1.7530     0.4519     7.0600 C.ar    
  29 O29           -3.0851    -3.2617     2.6294 O.3     
  30 C30           -4.0210    -4.0182     3.4001 C.3     
  31 C31            3.6124     2.5935     3.0787 C.3     
  32 C32           -4.6130    -5.1318     2.5339 C.3     
  33 C33           -5.7043    -5.8627     3.3186 C.3     
  34 N34           -6.3497    -6.8563     2.4502 N.3     
  35 C35           -7.0835    -6.2034     1.3585 C.3     
  36 C36           -7.6188    -7.2654     0.3953 C.3     
  37 O37           -3.5831    -6.0558     2.1766 O.3     
  38 C38           -8.5428    -8.2194     1.1574 C.3     
  39 C39           -7.7679    -8.8492     2.3182 C.3     
  40 C40           -7.2283    -7.7413     3.2256 C.3     
  41 H41           -0.3998     1.7926    -0.8543 H       
  42 H42           -0.4014     1.7907     0.9234 H       
  43 H43            0.4309    -0.4632    -0.9452 H       
  44 H44            0.8059    -0.4686     0.7931 H       
  45 H45           -1.8877     0.1927     0.7688 H       
  46 H46           -1.7601    -0.9436    -0.5912 H       
  47 H47            1.5086     1.1779     2.0437 H       
  48 H48            3.0901     1.0632     1.2367 H       
  49 H49            2.1178     1.4857    -0.7595 H       
  50 H50            1.5301     3.0438    -0.1380 H       
  51 H51            0.4748     1.5455     3.4808 H       
  52 H52            1.3080     4.5644     2.1965 H       
  53 H53            0.5730     2.9705     2.4337 H       
  54 H54            3.0130     5.8346     6.3794 H       
  55 H55            2.7027     5.5739     3.9528 H       
  56 H56           -0.1805     0.1802     2.6112 H       
  57 H57            0.4459     3.0710     9.1774 H       
  58 H58            1.9662     2.1333     9.2389 H       
  59 H59           -3.4702    -2.5608     5.1101 H       
  60 H60           -1.9778     0.6790     8.0917 H       
  61 H61           -3.5136    -4.4570     4.2592 H       
  62 H62           -4.8205    -3.3630     3.7459 H       
  63 H63            4.4612     2.0776     2.6298 H       
  64 H64            3.9596     3.4986     3.5771 H       
  65 H65            3.1330     1.9390     3.8066 H       
  66 H66           -5.0428    -4.6996     1.6303 H       
  67 H67           -5.2595    -6.3652     4.1775 H       
  68 H68           -6.4475    -5.1437     3.6631 H       
  69 H69           -7.9165    -5.6338     1.7704 H       
  70 H70           -6.4140    -5.5311     0.8220 H       
  71 H71           -8.1766    -6.7815    -0.4064 H       
  72 H72           -6.7854    -7.8264    -0.0276 H       
  73 H73           -3.1553    -6.4797     2.9331 H       
  74 H74           -9.3966    -7.6654     1.5475 H       
  75 H75           -8.8922    -9.0029     0.4850 H       
  76 H76           -8.4323    -9.4969     2.8903 H       
  77 H77           -6.9369    -9.4351     1.9255 H       
  78 H78           -6.6639    -8.1859     4.0453 H       
  79 H79           -8.0606    -7.1645     3.6288 H       
@<TRIPOS>BOND
   1    1    2 1
   2    1    5 1
   3    1   41 1
   4    1   42 1
   5    2    3 1
   6    2   43 1
   7    2   44 1
   8    3   15 1
   9    3   45 1
  10    3   46 1
  11    4    5 1
  12    4    6 1
  13    4   47 1
  14    4   48 1
  15    5   49 1
  16    5   50 1
  17    6   31 1
  18    6   10 1
  19    7    8 1
  20    7   19 1
  21    7   51 1
  22    8    9 ar
  23    8   11 ar
  24    9   10 1
  25    9   14 ar
  26   10   52 1
  27   10   53 1
  28   11   12 ar
  29   11   21 1
  30   12   13 ar
  31   12   23 1
  32   13   14 ar
  33   13   54 1
  34   14   55 1
  35   15   16 1
  36   16   17 ar
  37   16   24 ar
  38   17   18 ar
  39   17   56 1
  40   18   19 ar
  41   18   26 ar
  42   19   20 ar
  43   20   28 ar
  44   21   22 1
  45   22   23 1
  46   22   57 1
  47   22   58 1
  48   24   25 ar
  49   24   29 1
  50   25   26 ar
  51   25   59 1
  52   26   27 ar
  53   27   28 ar
  54   28   60 1
  55   29   30 1
  56   30   32 1
  57   30   61 1
  58   30   62 1
  59   31   63 1
  60   31   64 1
  61   31   65 1
  62   32   33 1
  63   32   37 1
  64   32   66 1
  65   33   34 1
  66   33   67 1
  67   33   68 1
  68   34   35 1
  69   34   40 1
  70   35   36 1
  71   35   69 1
  72   35   70 1
  73   36   38 1
  74   36   71 1
  75   36   72 1
  76   37   73 1
  77   38   39 1
  78   38   74 1
  79   38   75 1
  80   39   40 1
  81   39   76 1
  82   39   77 1
  83   40   78 1
  84   40   79 1

#	End of record

