#	Name: ASD07930258
#	Creating user name:	WinNT
#	Creation time:	15. 06. 2019 21:12

#	Modifying user name:	WinNT
#	Modification time:	15. 06. 2019 21:12

#	Program:	/corina/corina34_cracker 3.40 0067  02.08.2006

@<TRIPOS>MOLECULE
ASD07930258
  61   65    0    0    0
SMALL
NO_CHARGES


@<TRIPOS>ATOM
   1 C1             0.3448     1.8241     0.8483 C.2     
   2 C2             0.3815     0.4653     1.0020 C.2     
   3 C3             1.6787    -0.2147     0.9678 C.2     
   4 N4             2.7969     0.5096     0.7887 N.am    
   5 C5             2.7335     1.8761     0.6344 C.2     
   6 C6             1.5401     2.5296     0.6625 C.2     
   7 C7             4.1143    -0.1398     0.7555 C.3     
   8 C8             4.9480     0.5310    -0.3464 C.3     
   9 N9             5.0782     1.9601    -0.0283 N.am    
  10 C10            3.9934     2.6259     0.4348 C.2     
  11 C11            6.3573     2.6512    -0.2087 C.3     
  12 O12            4.0536     3.8150     0.6813 O.2     
  13 O13            1.7434    -1.4250     1.1007 O.2     
  14 N14           -0.7977    -0.2614     1.1890 N.pl3   
  15 C15           -1.3201    -1.1860     0.3409 C.2     
  16 N16           -2.4263    -1.6462     0.8584 N.2     
  17 C17           -2.6502    -1.0446     2.0363 C.2     
  18 C18           -1.6432    -0.1806     2.2656 C.2     
  19 C19           -3.8231    -1.2966     2.9484 C.3     
  20 C20            6.4307     3.2269    -1.6244 C.3     
  21 O21            5.4306     4.2355    -1.7809 O.3     
  22 C22            5.4370     4.9351    -2.9456 C.2     
  23 C23            4.5303     5.8696    -3.3162 C.2     
  24 C24            4.9080     6.3447    -4.5894 C.2     
  25 C25            6.0273     5.6878    -4.9525 C.2     
  26 N26            6.3631     4.8219    -3.9439 N.pl3   
  27 C27            7.4680     3.9574    -3.9414 C.ar    
  28 C28            7.2947     2.6076    -4.2138 C.ar    
  29 C29            8.3838     1.7578    -4.2108 C.ar    
  30 C30            9.6476     2.2518    -3.9357 C.ar    
  31 C31            9.8224     3.5984    -3.6632 C.ar    
  32 C32            8.7369     4.4521    -3.6719 C.ar    
  33 C33            8.9275     5.9172    -3.3753 C.3     
  34 F34           10.7115     1.4192    -3.9328 F       
  35 C35            4.1901     7.3950    -5.3971 C.3     
  36 F36            3.0700     7.8432    -4.6887 F       
  37 F37            5.0524     8.4706    -5.6350 F       
  38 F38            3.7812     6.8463    -6.6173 F       
  39 H39           -0.5993     2.3483     0.8655 H       
  40 H40            1.5147     3.6023     0.5402 H       
  41 H41            4.6099    -0.0168     1.7186 H       
  42 H42            3.9966    -1.2005     0.5340 H       
  43 H43            5.9364     0.0734    -0.3876 H       
  44 H44            4.4468     0.4139    -1.3073 H       
  45 H45            6.4386     3.4603     0.5172 H       
  46 H46            7.1753     1.9463    -0.0603 H       
  47 H47           -0.8919    -1.4888    -0.6032 H       
  48 H48           -1.5275     0.4586     3.1284 H       
  49 H49           -3.5751    -2.0959     3.6468 H       
  50 H50           -4.0535    -0.3874     3.5037 H       
  51 H51           -4.6890    -1.5889     2.3544 H       
  52 H52            7.4158     3.6635    -1.7884 H       
  53 H53            6.2607     2.4310    -2.3495 H       
  54 H54            3.6743     6.1921    -2.7421 H       
  55 H55            6.5687     5.8231    -5.8771 H       
  56 H56            6.3089     2.2217    -4.4277 H       
  57 H57            8.2493     0.7074    -4.4227 H       
  58 H58           10.8088     3.9819    -3.4482 H       
  59 H59            9.0275     6.4673    -4.3110 H       
  60 H60            8.0649     6.2916    -2.8241 H       
  61 H61            9.8281     6.0525    -2.7764 H       
@<TRIPOS>BOND
   1    1    2 2
   2    1    6 1
   3    1   39 1
   4    2    3 1
   5    2   14 1
   6    3    4 am
   7    3   13 2
   8    4    5 1
   9    4    7 1
  10    5    6 2
  11    5   10 1
  12    6   40 1
  13    7    8 1
  14    7   41 1
  15    7   42 1
  16    8    9 1
  17    8   43 1
  18    8   44 1
  19    9   10 am
  20    9   11 1
  21   10   12 2
  22   11   20 1
  23   11   45 1
  24   11   46 1
  25   14   15 1
  26   14   18 1
  27   15   16 2
  28   15   47 1
  29   16   17 1
  30   17   18 2
  31   17   19 1
  32   18   48 1
  33   19   49 1
  34   19   50 1
  35   19   51 1
  36   20   21 1
  37   20   52 1
  38   20   53 1
  39   21   22 1
  40   22   23 2
  41   22   26 1
  42   23   24 1
  43   23   54 1
  44   24   25 2
  45   24   35 1
  46   25   26 1
  47   25   55 1
  48   26   27 1
  49   27   28 ar
  50   27   32 ar
  51   28   29 ar
  52   28   56 1
  53   29   30 ar
  54   29   57 1
  55   30   31 ar
  56   30   34 1
  57   31   32 ar
  58   31   58 1
  59   32   33 1
  60   33   59 1
  61   33   60 1
  62   33   61 1
  63   35   36 1
  64   35   37 1
  65   35   38 1

#	End of record

