#	Name: ASD03081280
#	Creating user name:	WinNT
#	Creation time:	15. 06. 2019 20:27

#	Modifying user name:	WinNT
#	Modification time:	15. 06. 2019 20:27

#	Program:	/corina/corina34_cracker 3.40 0067  02.08.2006

@<TRIPOS>MOLECULE
ASD03081280
  27   29    0    0    0
SMALL
NO_CHARGES


@<TRIPOS>ATOM
   1 C1            -0.0169     1.3971     0.0097 C.ar    
   2 C2             0.0021    -0.0041     0.0020 C.ar    
   3 C3             1.2245    -0.6777    -0.0133 C.ar    
   4 C4             2.4039     0.0376    -0.0207 C.ar    
   5 C5             2.3806     1.4216    -0.0130 C.ar    
   6 C6             1.1766     2.1002     0.0021 C.ar    
   7 O7            -1.2004     2.0628     0.0189 O.3     
   8 O8            -1.3891    -2.1063     0.0046 O.3     
   9 C9            -1.2637    -0.7635     0.0105 C.2     
  10 N10           -2.4757    -0.2553     0.0257 N.2     
  11 N11           -3.3389    -1.2093     0.0295 N.2     
  12 C12           -2.7132    -2.3640     0.0168 C.2     
  13 C13           -2.5597    -4.8552     0.0027 C.ar    
  14 C14           -3.3438    -3.7001     0.0165 C.ar    
  15 C15           -4.7378    -3.8294     0.0306 C.ar    
  16 C16           -5.2783    -5.1034     0.0301 C.ar    
  17 C17           -4.4326    -6.1977     0.0159 C.ar    
  18 N18           -3.1219    -6.0459     0.0028 N.ar    
  19 H19            1.2469    -1.7575    -0.0189 H       
  20 H20            3.3493    -0.4843    -0.0322 H       
  21 H21            3.3085     1.9742    -0.0186 H       
  22 H22            1.1662     3.1802     0.0076 H       
  23 H23           -1.5390     2.2508     0.9050 H       
  24 H24           -1.4831    -4.7715    -0.0128 H       
  25 H25           -5.3749    -2.9574     0.0418 H       
  26 H26           -6.3493    -5.2417     0.0411 H       
  27 H27           -4.8519    -7.1930     0.0155 H       
@<TRIPOS>BOND
   1    1    2 ar
   2    1    6 ar
   3    1    7 1
   4    2    3 ar
   5    2    9 1
   6    3    4 ar
   7    3   19 1
   8    4    5 ar
   9    4   20 1
  10    5    6 ar
  11    5   21 1
  12    6   22 1
  13    7   23 1
  14    8    9 1
  15    8   12 1
  16    9   10 2
  17   10   11 1
  18   11   12 2
  19   12   14 1
  20   13   14 ar
  21   13   18 ar
  22   13   24 1
  23   14   15 ar
  24   15   16 ar
  25   15   25 1
  26   16   17 ar
  27   16   26 1
  28   17   18 ar
  29   17   27 1

#	End of record

