#	Name: ASD03451018
#	Creating user name:	WinNT
#	Creation time:	15. 06. 2019 20:42

#	Modifying user name:	WinNT
#	Modification time:	15. 06. 2019 20:42

#	Program:	/corina/corina34_cracker 3.40 0067  02.08.2006

@<TRIPOS>MOLECULE
ASD03451018
  38   41    0    0    0
SMALL
NO_CHARGES


@<TRIPOS>ATOM
   1 C1            -0.0013     1.6160     0.0517 C.ar    
   2 C2            -0.0341     0.2342    -0.0134 C.ar    
   3 C3             1.1556    -0.4683    -0.0583 C.ar    
   4 C4             2.3644     0.2437    -0.0367 C.ar    
   5 C5             2.3223     1.6427     0.0236 C.ar    
   6 N6             1.1397     2.2674     0.0683 N.ar    
   7 C7             3.6169    -0.5248    -0.0732 C.2     
   8 N8             4.6668    -0.2341     0.6214 N.2     
   9 C9             4.6925     0.9284     1.5094 C.3     
  10 C10            4.5154     2.1730     0.6851 C.2     
  11 N11            3.4338     2.4198     0.0338 N.2     
  12 C12            3.6791    -1.7053    -0.9607 C.2     
  13 C13            3.5722     0.8230     2.5118 C.2     
  14 S14            2.6767     2.1822     3.1782 S.3     
  15 C15            1.6925     1.0958     4.1501 C.2     
  16 C16            2.0701    -0.1649     3.9328 C.2     
  17 C17            3.1041    -0.3158     3.0249 C.2     
  18 C18            4.7463    -2.5384    -1.1301 C.2     
  19 N19            4.3960    -3.4937    -2.0272 N.pl3   
  20 C20            3.1104    -3.2766    -2.4329 C.2     
  21 C21            2.6370    -2.1917    -1.7947 C.2     
  22 N22            5.5382     3.0730     0.6260 N.pl3   
  23 C23            5.3937     4.2947    -0.1694 C.3     
  24 H24           -0.9287     2.1684     0.0849 H       
  25 H25           -0.9785    -0.2895    -0.0286 H       
  26 H26            1.1546    -1.5471    -0.1089 H       
  27 H27            5.6489     0.9686     2.0307 H       
  28 H28            0.9033     1.4026     4.8205 H       
  29 H29            1.6020    -1.0046     4.4250 H       
  30 H30            3.5061    -1.2819     2.7576 H       
  31 H31            5.7030    -2.4521    -0.6365 H       
  32 H32            4.9676    -4.2157    -2.3321 H       
  33 H33            2.5636    -3.8784    -3.1436 H       
  34 H34            1.6507    -1.7650    -1.9022 H       
  35 H35            6.3613     2.9042     1.1106 H       
  36 H36            6.3064     4.8861    -0.0960 H       
  37 H37            5.2147     4.0307    -1.2117 H       
  38 H38            4.5526     4.8764     0.2076 H       
@<TRIPOS>BOND
   1    1    2 ar
   2    1    6 ar
   3    1   24 1
   4    2    3 ar
   5    2   25 1
   6    3    4 ar
   7    3   26 1
   8    4    5 ar
   9    4    7 1
  10    5    6 ar
  11    5   11 1
  12    7    8 2
  13    7   12 1
  14    8    9 1
  15    9   10 1
  16    9   13 1
  17    9   27 1
  18   10   11 2
  19   10   22 1
  20   12   18 2
  21   12   21 1
  22   13   14 1
  23   13   17 2
  24   14   15 1
  25   15   16 2
  26   15   28 1
  27   16   17 1
  28   16   29 1
  29   17   30 1
  30   18   19 1
  31   18   31 1
  32   19   20 1
  33   19   32 1
  34   20   21 2
  35   20   33 1
  36   21   34 1
  37   22   23 1
  38   22   35 1
  39   23   36 1
  40   23   37 1
  41   23   38 1

#	End of record

