#	Name: ASD02610039
#	Creating user name:	WinNT
#	Creation time:	15. 06. 2019 20:25

#	Modifying user name:	WinNT
#	Modification time:	15. 06. 2019 20:25

#	Program:	/corina/corina34_cracker 3.40 0067  02.08.2006

@<TRIPOS>MOLECULE
ASD02610039
 126  128    0    0    0
SMALL
NO_CHARGES


@<TRIPOS>ATOM
   1 C1             0.3689     1.0879    -0.2542 C.3     
   2 C2             0.7036    -0.4157    -0.4066 C.3     
   3 C3             2.1170    -0.4407    -0.9397 C.2     
   4 C4             2.7081     0.7199    -0.7738 C.2     
   5 C5             1.7792     1.6871    -0.0964 C.3     
   6 C6             4.1023     1.0411    -1.2437 C.3     
   7 C7             4.7434     2.1047    -0.3781 C.3     
   8 C8             4.3239     3.5119    -0.6734 C.3     
   9 C9             3.0314     3.8903     0.0028 C.3     
  10 C10            1.8638     3.0976    -0.5619 C.3     
  11 O11           -0.2044    -1.0432    -1.3501 O.3     
  12 C12            2.7644    -1.6420    -1.5790 C.3     
  13 O13           -0.4369     1.3273     0.9298 O.3     
  14 H14            2.0188     1.6822     0.9669 H       
  15 O15            0.6319     3.7746    -0.1981 O.3     
  16 C16            1.9744     3.0964    -2.0879 C.3     
  17 O17            4.1653     3.6588    -2.0859 O.3     
  18 O18            4.9737    -0.0973    -1.1271 O.3     
  19 C19            6.3209     0.4176    -1.1199 C.3     
  20 C20            6.2525     1.8724    -0.6030 C.3     
  21 O21            4.4389     1.8239     0.9896 O.3     
  22 C22           -1.7700     1.3015     0.7751 C.2     
  23 C23           -2.6707     1.5413     1.9593 C.3     
  24 C24           -4.1320     1.4578     1.5137 C.3     
  25 C25           -5.0465     1.7013     2.7159 C.3     
  26 C26           -6.5078     1.6179     2.2703 C.3     
  27 C27           -7.4222     1.8613     3.4726 C.3     
  28 O28           -2.2478     1.0860    -0.3135 O.2     
  29 O29            6.7605     2.7792    -1.5836 O.3     
  30 C30           -8.8835     1.7779     3.0270 C.3     
  31 C31           -9.7980     2.0213     4.2292 C.3     
  32 C32            7.0210     2.0132     0.7125 C.3     
  33 C33            0.4818     5.0382    -0.6254 C.2     
  34 C34           -0.7316     5.8329    -0.2164 C.3     
  35 O35            1.3196     5.5385    -1.3380 O.2     
  36 H36            4.0733     1.3777    -2.2800 H       
  37 C37            6.8939     0.3958    -2.5384 C.3     
  38 O38            7.1375    -0.3693    -0.2505 O.3     
  39 C39           -0.4812    -2.3425    -1.1574 C.2     
  40 C40           -1.4154    -3.0612    -2.0964 C.3     
  41 O41            0.0186    -2.9357    -0.2310 O.2     
  42 C42           -1.5588    -4.5194    -1.6562 C.3     
  43 C43           -2.5072    -5.2491    -2.6096 C.3     
  44 C44           -2.6506    -6.7074    -2.1693 C.3     
  45 C45           -3.5990    -7.4370    -3.1227 C.3     
  46 C46           -3.7424    -8.8953    -2.6824 C.3     
  47 C47           -4.6908    -9.6250    -3.6358 C.3     
  48 C48           -4.8342   -11.0832    -3.1955 C.3     
  49 C49           -5.7827   -11.8129    -4.1489 C.3     
  50 C50           -5.9261   -13.2711    -3.7087 C.3     
  51 C51           -6.8745   -14.0008    -4.6621 C.3     
  52 N52           -7.0118   -15.3971    -4.2405 N.am    
  53 C53           -7.8037   -16.2365    -4.9368 C.2     
  54 C54           -7.9449   -17.6728    -4.5031 C.3     
  55 O55           -8.4026   -15.8359    -5.9123 O.2     
  56 N56           -9.1707   -18.2403    -5.0804 N.3     
  57 C57           -6.7347   -18.4734    -4.9881 C.3     
  58 O58           -6.8103   -19.8065    -4.4791 O.3     
  59 H59           -0.1239     1.4731    -1.1469 H       
  60 H60            0.6534    -0.9160     0.5605 H       
  61 H61            5.1082     4.1903    -0.3375 H       
  62 H62            3.1153     3.6910     1.0712 H       
  63 H63            2.8473     4.9541    -0.1479 H       
  64 H64            2.0575    -2.4716    -1.5925 H       
  65 H65            3.0565    -1.3969    -2.6001 H       
  66 H66            3.6474    -1.9264    -1.0068 H       
  67 H67            1.0287     2.7695    -2.5205 H       
  68 H68            2.2045     4.1032    -2.4363 H       
  69 H69            2.7686     2.4155    -2.3941 H       
  70 H70            3.8937     4.5451    -2.3612 H       
  71 H71            4.6872     0.9334     1.2730 H       
  72 H72           -2.4792     0.7849     2.7204 H       
  73 H73           -2.4726     2.5305     2.3720 H       
  74 H74           -4.3235     2.2142     0.7525 H       
  75 H75           -4.3301     0.4687     1.1009 H       
  76 H76           -4.8550     0.9450     3.4771 H       
  77 H77           -4.8484     2.6905     3.1287 H       
  78 H78           -6.6992     2.3742     1.5091 H       
  79 H79           -6.7058     0.6287     1.8576 H       
  80 H80           -7.2307     1.1050     4.2337 H       
  81 H81           -7.2241     2.8505     3.8853 H       
  82 H82            7.7050     2.6759    -1.7630 H       
  83 H83           -9.0750     2.5342     2.2658 H       
  84 H84           -9.0816     0.7887     2.6142 H       
  85 H85           -9.6065     1.2650     4.9904 H       
  86 H86           -9.5999     3.0105     4.6420 H       
  87 H87          -10.8391     1.9619     3.9118 H       
  88 H88            6.6535     1.2782     1.4285 H       
  89 H89            8.0829     1.8458     0.5326 H       
  90 H90            6.8741     3.0161     1.1135 H       
  91 H91           -1.3692     5.2203     0.4209 H       
  92 H92           -0.4165     6.7211     0.3311 H       
  93 H93           -1.2866     6.1319    -1.1056 H       
  94 H94            6.2615     0.9933    -3.1950 H       
  95 H95            7.9021     0.8100    -2.5294 H       
  96 H96            6.9264    -0.6315    -2.9013 H       
  97 H97            7.2117    -1.2969    -0.5134 H       
  98 H98           -2.3923    -2.5781    -2.0774 H       
  99 H99           -1.0119    -3.0252    -3.1084 H       
 100 H100          -0.5818    -5.0025    -1.6752 H       
 101 H101          -1.9622    -4.5554    -0.6442 H       
 102 H102          -3.4841    -4.7661    -2.5905 H       
 103 H103          -2.1038    -5.2131    -3.6215 H       
 104 H104          -1.6737    -7.1904    -2.1884 H       
 105 H105          -3.0540    -6.7434    -1.1573 H       
 106 H106          -4.5759    -6.9540    -3.1036 H       
 107 H107          -3.1956    -7.4010    -4.1346 H       
 108 H108          -2.7655    -9.3783    -2.7015 H       
 109 H109          -4.1458    -8.9313    -1.6705 H       
 110 H110          -5.6678    -9.1419    -3.6167 H       
 111 H111          -4.2874    -9.5890    -4.6478 H       
 112 H112          -3.8573   -11.5663    -3.2146 H       
 113 H113          -5.2377   -11.1192    -2.1836 H       
 114 H114          -6.7596   -11.3299    -4.1299 H       
 115 H115          -5.3792   -11.7769    -5.1609 H       
 116 H116          -4.9491   -13.7542    -3.7277 H       
 117 H117          -6.3295   -13.3071    -2.6967 H       
 118 H118          -7.8514   -13.5178    -4.6430 H       
 119 H119          -6.4710   -13.9648    -5.6740 H       
 120 H120          -6.5328   -15.7175    -3.4602 H       
 121 H121          -7.9998   -17.7203    -3.4155 H       
 122 H122          -9.9894   -17.7698    -4.7248 H       
 123 H123          -9.1443   -18.2079    -6.0885 H       
 124 H124          -6.7299   -18.5003    -6.0778 H       
 125 H125          -5.8196   -18.0000    -4.6324 H       
 126 H126          -6.0734   -20.3723    -4.7473 H       
@<TRIPOS>BOND
   1    1    2 1
   2    1    5 1
   3    1   13 1
   4    1   59 1
   5    2    3 1
   6    2   11 1
   7    2   60 1
   8    3    4 2
   9    3   12 1
  10    4    5 1
  11    4    6 1
  12    5   10 1
  13    5   14 1
  14    6    7 1
  15    6   18 1
  16    6   36 1
  17    7   20 1
  18    7   21 1
  19    7    8 1
  20    8    9 1
  21    8   17 1
  22    8   61 1
  23    9   10 1
  24    9   62 1
  25    9   63 1
  26   10   15 1
  27   10   16 1
  28   11   39 1
  29   12   64 1
  30   12   65 1
  31   12   66 1
  32   13   22 1
  33   15   33 1
  34   16   67 1
  35   16   68 1
  36   16   69 1
  37   17   70 1
  38   18   19 1
  39   19   20 1
  40   19   37 1
  41   19   38 1
  42   20   29 1
  43   20   32 1
  44   21   71 1
  45   22   23 1
  46   22   28 2
  47   23   24 1
  48   23   72 1
  49   23   73 1
  50   24   25 1
  51   24   74 1
  52   24   75 1
  53   25   26 1
  54   25   76 1
  55   25   77 1
  56   26   27 1
  57   26   78 1
  58   26   79 1
  59   27   30 1
  60   27   80 1
  61   27   81 1
  62   29   82 1
  63   30   31 1
  64   30   83 1
  65   30   84 1
  66   31   85 1
  67   31   86 1
  68   31   87 1
  69   32   88 1
  70   32   89 1
  71   32   90 1
  72   33   34 1
  73   33   35 2
  74   34   91 1
  75   34   92 1
  76   34   93 1
  77   37   94 1
  78   37   95 1
  79   37   96 1
  80   38   97 1
  81   39   40 1
  82   39   41 2
  83   40   42 1
  84   40   98 1
  85   40   99 1
  86   42   43 1
  87   42  100 1
  88   42  101 1
  89   43   44 1
  90   43  102 1
  91   43  103 1
  92   44   45 1
  93   44  104 1
  94   44  105 1
  95   45   46 1
  96   45  106 1
  97   45  107 1
  98   46   47 1
  99   46  108 1
 100   46  109 1
 101   47   48 1
 102   47  110 1
 103   47  111 1
 104   48   49 1
 105   48  112 1
 106   48  113 1
 107   49   50 1
 108   49  114 1
 109   49  115 1
 110   50   51 1
 111   50  116 1
 112   50  117 1
 113   51   52 1
 114   51  118 1
 115   51  119 1
 116   52   53 am
 117   52  120 1
 118   53   54 1
 119   53   55 2
 120   54   56 1
 121   54   57 1
 122   54  121 1
 123   56  122 1
 124   56  123 1
 125   57   58 1
 126   57  124 1
 127   57  125 1
 128   58  126 1

#	End of record

