#	Name: ASD02508469
#	Creating user name:	WinNT
#	Creation time:	15. 06. 2019 20:24

#	Modifying user name:	WinNT
#	Modification time:	15. 06. 2019 20:24

#	Program:	/corina/corina34_cracker 3.40 0067  02.08.2006

@<TRIPOS>MOLECULE
ASD02508469
  36   38    0    0    0
SMALL
NO_CHARGES


@<TRIPOS>ATOM
   1 C1             1.1039     1.7984    -0.0189 C.2     
   2 C2             2.0778     0.7877     0.1165 C.2     
   3 C3             1.4503    -0.3988    -0.0058 C.2     
   4 N4             0.1204    -0.1588    -0.2125 N.pl3   
   5 C5            -0.0834     1.1930    -0.2191 C.2     
   6 C6            -0.8643    -1.1310    -0.3879 C.ar    
   7 N7            -0.5346    -2.4139    -0.4905 N.ar    
   8 C8            -2.2096    -0.7720    -0.4525 C.ar    
   9 C9            -3.1488    -1.7718    -0.6269 C.ar    
  10 N10           -2.7434    -3.0289    -0.7262 N.ar    
  11 C11           -1.4623    -3.3363    -0.6560 C.ar    
  12 S12            2.2123    -1.9849     0.0845 S.o2    
  13 N13            2.3169    -2.5672    -1.4622 N.am    
  14 C14            3.0535    -1.8700    -2.4226 C.ar    
  15 C15            4.3523    -1.4642    -2.1442 C.ar    
  16 C16            5.0780    -0.7753    -3.0963 C.ar    
  17 C17            4.5128    -0.4892    -4.3253 C.ar    
  18 C18            3.2197    -0.8918    -4.6058 C.ar    
  19 C19            2.4906    -1.5859    -3.6606 C.ar    
  20 O20            3.5463    -1.7649     0.5215 O.2     
  21 O21            1.2991    -2.8303     0.7705 O.2     
  22 Cl22          -0.9844    -4.9996    -0.7927 Cl      
  23 C23            2.6076    -0.5773    -5.9465 C.3     
  24 F24            3.5328     0.1219    -6.7291 F       
  25 F25            2.2582    -1.7690    -6.5908 F       
  26 F26            1.4637     0.2071    -5.7645 F       
  27 H27            1.2771     2.8632     0.0330 H       
  28 H28            3.1337     0.9370     0.2872 H       
  29 H29           -1.0320     1.6898    -0.3598 H       
  30 H30           -2.5110     0.2617    -0.3681 H       
  31 H31           -4.2002    -1.5307    -0.6811 H       
  32 H32            1.8667    -3.3925    -1.7013 H       
  33 H33            4.7941    -1.6867    -1.1841 H       
  34 H34            6.0880    -0.4594    -2.8804 H       
  35 H35            5.0822     0.0502    -5.0677 H       
  36 H36            1.4810    -1.9003    -3.8804 H       
@<TRIPOS>BOND
   1    1    2 1
   2    1    5 2
   3    1   27 1
   4    2    3 2
   5    2   28 1
   6    3    4 1
   7    3   12 1
   8    4    5 1
   9    4    6 1
  10    5   29 1
  11    6    7 ar
  12    6    8 ar
  13    7   11 ar
  14    8    9 ar
  15    8   30 1
  16    9   10 ar
  17    9   31 1
  18   10   11 ar
  19   11   22 1
  20   12   13 am
  21   12   20 2
  22   12   21 2
  23   13   14 1
  24   13   32 1
  25   14   15 ar
  26   14   19 ar
  27   15   16 ar
  28   15   33 1
  29   16   17 ar
  30   16   34 1
  31   17   18 ar
  32   17   35 1
  33   18   19 ar
  34   18   23 1
  35   19   36 1
  36   23   24 1
  37   23   25 1
  38   23   26 1

#	End of record

