#	Name: ASD01880943
#	Creating user name:	WinNT
#	Creation time:	15. 06. 2019 19:41

#	Modifying user name:	WinNT
#	Modification time:	15. 06. 2019 19:41

#	Program:	/corina/corina34_cracker 3.40 0067  02.08.2006

@<TRIPOS>MOLECULE
ASD01880943
  52   55    0    0    0
SMALL
NO_CHARGES


@<TRIPOS>ATOM
   1 N1             0.0004     1.3124    -0.2014 N.ar    
   2 C2             0.0235    -0.0047    -0.2232 C.ar    
   3 N3             1.1368    -0.6836    -0.0323 N.ar    
   4 C4             2.2861    -0.0620     0.1909 C.ar    
   5 C5             2.3103     1.3186     0.2226 C.ar    
   6 C6             1.1133     2.0072     0.0165 C.ar    
   7 C7             3.5963     2.0630     0.4733 C.3     
   8 O8             4.6351     1.1301     0.7777 O.3     
   9 C9             5.8668     1.6405     1.0312 C.ar    
  10 C10            6.9238     0.7872     1.3345 C.ar    
  11 C11            8.1694     1.3036     1.5904 C.ar    
  12 C12            8.3854     2.6853     1.5486 C.ar    
  13 C13            7.3200     3.5390     1.2433 C.ar    
  14 C14            6.0722     3.0134     0.9820 C.ar    
  15 C15            9.4955     0.6760     1.9410 C.3     
  16 N16           10.4464     1.7838     2.0885 N.am    
  17 C17            9.8014     2.9408     1.8612 C.2     
  18 O18           10.3144     4.0423     1.9068 O.2     
  19 Cl19           7.5697     5.2560     1.1875 Cl      
  20 N20            1.0853     3.3922     0.0383 N.3     
  21 C21           -0.1599     3.8844     0.6438 C.3     
  22 C22           -0.1171     5.4123     0.7215 C.3     
  23 N23            0.0625     5.9640    -0.6287 N.3     
  24 C24            1.3078     5.4718    -1.2342 C.3     
  25 C25            1.2650     3.9439    -1.3119 C.3     
  26 C26            0.0329     7.4325    -0.6056 C.3     
  27 C27           12.6854     1.5111     1.1430 C.3     
  28 C28           11.8655     1.6506     2.4272 C.3     
  29 H29           -0.8955    -0.5430    -0.4021 H       
  30 H30            3.1925    -0.6282     0.3464 H       
  31 H31            3.8671     2.6306    -0.4170 H       
  32 H32            3.4634     2.7454     1.3127 H       
  33 H33            6.7638    -0.2803     1.3688 H       
  34 H34            5.2497     3.6723     0.7459 H       
  35 H35            9.4135     0.1253     2.8780 H       
  36 H36            9.8178     0.0095     1.1410 H       
  37 H37           -1.0083     3.5749     0.0334 H       
  38 H38           -0.2640     3.4720     1.6474 H       
  39 H39           -1.0518     5.7813     1.1437 H       
  40 H40            0.7150     5.7211     1.3542 H       
  41 H41            1.4119     5.8841    -2.2379 H       
  42 H42            2.1561     5.7813    -0.6238 H       
  43 H43            2.1997     3.5749    -1.7341 H       
  44 H44            0.4328     3.6350    -1.9446 H       
  45 H45            0.8355     7.8021     0.0326 H       
  46 H46            0.1681     7.8146    -1.6175 H       
  47 H47           -0.9269     7.7705    -0.2148 H       
  48 H48           12.3577     0.6265     0.5970 H       
  49 H49           12.5416     2.3954     0.5222 H       
  50 H50           13.7413     1.4120     1.3951 H       
  51 H51           12.1933     2.5351     2.9733 H       
  52 H52           12.0093     0.7663     3.0480 H       
@<TRIPOS>BOND
   1    1    2 ar
   2    1    6 ar
   3    2    3 ar
   4    2   29 1
   5    3    4 ar
   6    4    5 ar
   7    4   30 1
   8    5    6 ar
   9    5    7 1
  10    6   20 1
  11    7    8 1
  12    7   31 1
  13    7   32 1
  14    8    9 1
  15    9   10 ar
  16    9   14 ar
  17   10   11 ar
  18   10   33 1
  19   11   12 ar
  20   11   15 1
  21   12   13 ar
  22   12   17 1
  23   13   14 ar
  24   13   19 1
  25   14   34 1
  26   15   16 1
  27   15   35 1
  28   15   36 1
  29   16   17 am
  30   16   28 1
  31   17   18 2
  32   20   21 1
  33   20   25 1
  34   21   22 1
  35   21   37 1
  36   21   38 1
  37   22   23 1
  38   22   39 1
  39   22   40 1
  40   23   24 1
  41   23   26 1
  42   24   25 1
  43   24   41 1
  44   24   42 1
  45   25   43 1
  46   25   44 1
  47   26   45 1
  48   26   46 1
  49   26   47 1
  50   27   28 1
  51   27   48 1
  52   27   49 1
  53   27   50 1
  54   28   51 1
  55   28   52 1

#	End of record

