#	Name: ASD01208489
#	Creating user name:	WinNT
#	Creation time:	15. 06. 2019 19:09

#	Modifying user name:	WinNT
#	Modification time:	15. 06. 2019 19:09

#	Program:	/corina/corina34_cracker 3.40 0067  02.08.2006

@<TRIPOS>MOLECULE
ASD01208489
  77   82    0    0    0
SMALL
NO_CHARGES


@<TRIPOS>ATOM
   1 S1            -1.3231     1.7698     0.5112 S.3     
   2 C2            -1.0501     0.0328     0.4024 C.2     
   3 N3             0.2348    -0.1956     0.3809 N.2     
   4 C4             1.0265     0.8503     0.4409 C.2     
   5 C5             0.4187     2.0387     0.5177 C.2     
   6 N6            -1.9014    -2.3511     0.2610 N.pl3   
   7 C7            -2.1008    -0.9947     0.3458 C.2     
   8 C8            -3.4595    -0.7671     0.3685 C.2     
   9 C9            -4.0938    -2.0102     0.2959 C.2     
  10 C10           -3.1243    -2.9692     0.2307 C.2     
  11 C11           -3.3544    -4.4261     0.1428 C.ar    
  12 C12           -2.2704    -5.3035     0.0823 C.ar    
  13 C13           -2.4907    -6.6683     0.0006 C.ar    
  14 C14           -3.7870    -7.1640    -0.0217 C.ar    
  15 C15           -4.8671    -6.2954     0.0382 C.ar    
  16 C16           -4.6560    -4.9293     0.1259 C.ar    
  17 O17           -6.1343    -6.7861     0.0160 O.3     
  18 C18           -7.1961    -5.8497     0.2108 C.3     
  19 C19           -8.4234    -6.5778     0.7626 C.3     
  20 C20           -7.5499    -5.1944    -1.1257 C.3     
  21 O21           -8.9083    -7.5013    -0.2141 O.3     
  22 C22          -10.0597    -8.2376     0.2034 C.3     
  23 O23           -1.4362    -7.5234    -0.0584 O.3     
  24 C24           -0.6709    -7.6690     1.0532 C.ar    
  25 C25            0.4968    -8.4253     0.9983 C.ar    
  26 C26            1.2762    -8.5744     2.1255 C.ar    
  27 C27            0.8922    -7.9651     3.3234 C.ar    
  28 C28           -0.2803    -7.2073     3.3732 C.ar    
  29 C29           -1.0515    -7.0582     2.2414 C.ar    
  30 C30            1.7233    -8.1223     4.5331 C.2     
  31 O31            1.4635    -7.4861     5.5361 O.2     
  32 N32            2.7701    -8.9712     4.5258 N.am    
  33 C33            3.8551    -9.3224     5.4543 C.3     
  34 C34            3.8956   -10.7089     4.7971 C.3     
  35 C35            3.3262    -9.9586     3.5884 C.3     
  36 O36            5.2132   -11.2264     4.6015 O.3     
  37 C37            5.2907   -12.6525     4.6500 C.3     
  38 C38            6.7143   -13.0983     4.3061 C.3     
  39 C39            6.8047   -14.6233     4.4189 C.3     
  40 C40            6.3885   -15.0453     5.8314 C.3     
  41 C41            4.9775   -14.5242     6.1163 C.3     
  42 O42            4.9560   -13.1035     5.9640 O.3     
  43 F43            0.8660    -9.0139    -0.1604 F       
  44 H44            2.1024     0.7564     0.4293 H       
  45 H45            0.9106     2.9985     0.5741 H       
  46 H46           -1.0403    -2.7962     0.2244 H       
  47 H47           -3.9452     0.1954     0.4314 H       
  48 H48           -5.1602    -2.1816     0.2922 H       
  49 H49           -1.2615    -4.9185     0.0989 H       
  50 H50           -3.9553    -8.2288    -0.0863 H       
  51 H51           -5.4974    -4.2542     0.1766 H       
  52 H52           -6.8795    -5.0835     0.9186 H       
  53 H53           -8.1486    -7.1180     1.6685 H       
  54 H54           -9.2027    -5.8518     0.9947 H       
  55 H55           -7.8664    -5.9606    -1.8334 H       
  56 H56           -8.3597    -4.4802    -0.9771 H       
  57 H57           -6.6755    -4.6757    -1.5188 H       
  58 H58          -10.8729    -7.5461     0.4239 H       
  59 H59          -10.3655    -8.9161    -0.5929 H       
  60 H60           -9.8188    -8.8123     1.0978 H       
  61 H61            2.1818    -9.1614     2.0832 H       
  62 H62           -0.5797    -6.7351     4.2972 H       
  63 H63           -1.9556    -6.4686     2.2790 H       
  64 H64            4.7644    -8.7417     5.2990 H       
  65 H65            3.5425    -9.3458     6.4983 H       
  66 H66            3.2072   -11.4315     5.2353 H       
  67 H67            2.5648   -10.5219     3.0490 H       
  68 H68            4.0932    -9.5490     2.9310 H       
  69 H69            4.5923   -13.0792     3.9301 H       
  70 H70            6.9556   -12.7935     3.2878 H       
  71 H71            7.4176   -12.6394     5.0010 H       
  72 H72            6.1377   -15.0830     3.6896 H       
  73 H73            7.8295   -14.9428     4.2300 H       
  74 H74            6.3967   -16.1329     5.9039 H       
  75 H75            7.0852   -14.6257     6.5571 H       
  76 H76            4.2749   -14.9756     5.4158 H       
  77 H77            4.6927   -14.7849     7.1357 H       
@<TRIPOS>BOND
   1    1    2 1
   2    1    5 1
   3    2    3 2
   4    2    7 1
   5    3    4 1
   6    4    5 2
   7    4   44 1
   8    5   45 1
   9    6    7 1
  10    6   10 1
  11    6   46 1
  12    7    8 2
  13    8    9 1
  14    8   47 1
  15    9   10 2
  16    9   48 1
  17   10   11 1
  18   11   12 ar
  19   11   16 ar
  20   12   13 ar
  21   12   49 1
  22   13   14 ar
  23   13   23 1
  24   14   15 ar
  25   14   50 1
  26   15   16 ar
  27   15   17 1
  28   16   51 1
  29   17   18 1
  30   18   19 1
  31   18   20 1
  32   18   52 1
  33   19   21 1
  34   19   53 1
  35   19   54 1
  36   20   55 1
  37   20   56 1
  38   20   57 1
  39   21   22 1
  40   22   58 1
  41   22   59 1
  42   22   60 1
  43   23   24 1
  44   24   25 ar
  45   24   29 ar
  46   25   26 ar
  47   25   43 1
  48   26   27 ar
  49   26   61 1
  50   27   28 ar
  51   27   30 1
  52   28   29 ar
  53   28   62 1
  54   29   63 1
  55   30   31 2
  56   30   32 am
  57   32   33 1
  58   32   35 1
  59   33   34 1
  60   33   64 1
  61   33   65 1
  62   34   35 1
  63   34   36 1
  64   34   66 1
  65   35   67 1
  66   35   68 1
  67   36   37 1
  68   37   38 1
  69   37   42 1
  70   37   69 1
  71   38   39 1
  72   38   70 1
  73   38   71 1
  74   39   40 1
  75   39   72 1
  76   39   73 1
  77   40   41 1
  78   40   74 1
  79   40   75 1
  80   41   42 1
  81   41   76 1
  82   41   77 1

#	End of record

