#	Name: ASD00990068
#	Creating user name:	WinNT
#	Creation time:	15. 06. 2019 18:54

#	Modifying user name:	WinNT
#	Modification time:	15. 06. 2019 18:54

#	Program:	/corina/corina34_cracker 3.40 0067  02.08.2006

@<TRIPOS>MOLECULE
ASD00990068
  15   16    0    0    0
SMALL
NO_CHARGES


@<TRIPOS>ATOM
   1 C1            -0.0167     1.3805     0.0096 C.ar    
   2 C2             0.0021    -0.0041     0.0020 C.ar    
   3 C3            -1.1808    -0.7175     0.0095 C.ar    
   4 C4            -2.3940    -0.0470     0.0247 C.ar    
   5 C5            -2.4141     1.3471     0.0323 C.ar    
   6 C6            -1.2233     2.0590     0.0306 C.ar    
   7 O7            -3.6826    -0.4683     0.0351 O.3     
   8 C8            -4.4961     0.5992     0.0489 C.2     
   9 N9            -3.7574     1.7265     0.0477 N.am    
  10 O10           -5.7113     0.5560     0.0603 O.2     
  11 F11           -1.2411     3.4098     0.0380 F       
  12 Cl12           1.4758     2.2671     0.0001 Cl      
  13 H13            0.9460    -0.5287    -0.0102 H       
  14 H14           -1.1605    -1.7973     0.0031 H       
  15 H15           -4.0969     2.6351     0.0562 H       
@<TRIPOS>BOND
   1    1    2 ar
   2    1   12 1
   3    1    6 ar
   4    2    3 ar
   5    2   13 1
   6    3    4 ar
   7    3   14 1
   8    4    5 ar
   9    4    7 1
  10    5    6 ar
  11    5    9 1
  12    6   11 1
  13    7    8 1
  14    8    9 am
  15    8   10 2
  16    9   15 1

#	End of record

