#	Name: ASD01410744
#	Creating user name:	WinNT
#	Creation time:	15. 06. 2019 19:18

#	Modifying user name:	WinNT
#	Modification time:	15. 06. 2019 19:18

#	Program:	/corina/corina34_cracker 3.40 0067  02.08.2006

@<TRIPOS>MOLECULE
ASD01410744
 103  109    0    0    0
SMALL
NO_CHARGES


@<TRIPOS>ATOM
   1 N1            -1.5619     3.7058     0.8370 N.3     
   2 C2             2.0161     4.1838     1.9613 C.3     
   3 C3             0.8343     4.1951     0.9660 C.3     
   4 N4             0.4016     5.6051     0.9633 N.am    
   5 C5             1.6255     6.4154     1.0216 C.3     
   6 C6             2.7085     5.5407     1.6857 C.3     
   7 O7             1.5430     4.1211     3.3082 O.3     
   8 C8             2.0558     6.7996    -0.3706 C.2     
   9 O9             1.4069     6.4351    -1.3282 O.2     
  10 N10            3.1618     7.5483    -0.5516 N.am    
  11 C11           -0.3000     3.3143     1.4745 C.3     
  12 C12           -1.9832     5.0542     1.2328 C.3     
  13 C13           -0.8694     6.0356     0.9594 C.2     
  14 O14           -1.1206     7.2014     0.7387 O.2     
  15 C15           -3.2235     5.4556     0.4318 C.3     
  16 C16           -3.7370     6.8078     0.9306 C.3     
  17 C17            3.6256     7.8540    -1.9072 C.3     
  18 C18            4.1047     6.6734    -2.7120 C.2     
  19 N19            4.2237     5.4641    -2.1290 N.am    
  20 O20            4.3830     6.8115    -3.8844 O.2     
  21 S21            4.8826     4.1999    -2.9716 S.o2    
  22 C22            6.6039     4.6954    -3.2587 C.3     
  23 C23            2.9145     8.9804    -2.6600 C.3     
  24 C24            4.3335     9.1925    -2.1266 C.3     
  25 C25            7.4674     3.7786    -4.1275 C.3     
  26 C26            6.9886     5.1243    -4.6760 C.3     
  27 O27            4.8228     3.1063    -2.0663 O.2     
  28 O28            4.1592     4.1790    -4.1946 O.2     
  29 C29            2.7447     8.8221    -4.1722 C.3     
  30 C30            1.9078     9.9819    -4.7156 C.3     
  31 C31            2.4032     3.6430     4.2412 C.ar    
  32 C32            2.0064     3.5057     5.5919 C.ar    
  33 C33            3.6780     3.2746     3.8994 C.ar    
  34 C34            4.5476     2.7829     4.8822 C.ar    
  35 N35            4.1685     2.6632     6.1435 N.ar    
  36 C36            2.9359     3.0017     6.5350 C.ar    
  37 C37            5.9198     2.3886     4.5003 C.2     
  38 C38            2.5453     2.8703     7.8782 C.ar    
  39 C39            1.2701     3.2267     8.2535 C.ar    
  40 C40            0.3591     3.7175     7.3132 C.ar    
  41 C41            0.7145     3.8598     6.0072 C.ar    
  42 O42            0.8921     3.0998     9.5520 O.3     
  43 C43           -0.4442     3.4862     9.8794 C.3     
  44 N44            6.8245     1.9188     5.3111 N.2     
  45 C45            7.9920     1.6203     4.7947 C.2     
  46 C46            8.1204     1.8354     3.4790 C.2     
  47 S47            6.5919     2.4713     2.8739 S.3     
  48 C48            9.1194     1.0700     5.6296 C.3     
  49 C49            9.1166    -0.4578     5.5469 C.3     
  50 C50           10.4523     1.6067     5.1041 C.3     
  51 C51           -2.8605     5.5632    -1.0506 C.3     
  52 C52           -2.6179     2.7223     1.1120 C.3     
  53 C53            3.5168     2.3418     8.9019 C.3     
  54 H54            2.6901     3.3534     1.7511 H       
  55 H55            1.1598     3.8862    -0.0274 H       
  56 H56            1.4517     7.3106     1.6187 H       
  57 H57            3.0402     5.9932     2.6202 H       
  58 H58            3.5525     5.4047     1.0095 H       
  59 H59            3.6507     7.8847     0.2157 H       
  60 H60           -0.3899     3.4279     2.5549 H       
  61 H61           -0.0831     2.2726     1.2383 H       
  62 H62           -2.2209     5.0623     2.2965 H       
  63 H63           -3.9998     4.7017     0.5621 H       
  64 H64           -2.9973     7.5791     0.7158 H       
  65 H65           -4.6719     7.0503     0.4253 H       
  66 H66           -3.9077     6.7575     2.0059 H       
  67 H67            3.9235     5.3343    -1.2158 H       
  68 H68            7.0906     5.2067    -2.4282 H       
  69 H69            2.1016     9.4939    -2.1466 H       
  70 H70            4.4539     9.8459    -1.2624 H       
  71 H71            5.1456     9.2194    -2.8532 H       
  72 H72            8.5223     3.6872    -3.8688 H       
  73 H73            7.0012     2.8778    -4.5266 H       
  74 H74            6.2074     5.1088    -5.4360 H       
  75 H75            7.7285     5.9181    -4.7782 H       
  76 H76            3.7243     8.8257    -4.6502 H       
  77 H77            2.2403     7.8794    -4.3845 H       
  78 H78            0.9282     9.9783    -4.2376 H       
  79 H79            2.4122    10.9246    -4.5033 H       
  80 H80            1.7868     9.8692    -5.7930 H       
  81 H81            4.0114     3.3626     2.8759 H       
  82 H82           -0.6371     3.9912     7.6279 H       
  83 H83            0.0013     4.2401     5.2908 H       
  84 H84           -0.6153     3.3351    10.9452 H       
  85 H85           -0.5888     4.5382     9.6337 H       
  86 H86           -1.1478     2.8798     9.3090 H       
  87 H87            9.0061     1.6481     2.8901 H       
  88 H88            8.9873     1.3779     6.6668 H       
  89 H89            9.9321    -0.8558     6.1508 H       
  90 H90            8.1670    -0.8402     5.9213 H       
  91 H91            9.2487    -0.7657     4.5097 H       
  92 H92           10.4543     2.6952     5.1630 H       
  93 H93           11.2677     1.2087     5.7080 H       
  94 H94           10.5844     1.2988     4.0669 H       
  95 H95           -2.4947     4.5998    -1.4059 H       
  96 H96           -3.7441     5.8492    -1.6212 H       
  97 H97           -2.0842     6.3171    -1.1808 H       
  98 H98           -2.7286     2.5998     2.1894 H       
  99 H99           -3.5591     3.0715     0.6874 H       
 100 H100          -2.3495     1.7659     0.6633 H       
 101 H101           4.0742     3.1717     9.3363 H       
 102 H102           2.9694     1.8211     9.6875 H       
 103 H103           4.2096     1.6504     8.4223 H       
@<TRIPOS>BOND
   1    1   52 1
   2    1   11 1
   3    1   12 1
   4    2    3 1
   5    2    7 1
   6    2    6 1
   7    2   54 1
   8    3    4 1
   9    3   11 1
  10    3   55 1
  11    4    5 1
  12    4   13 am
  13    5    6 1
  14    5    8 1
  15    5   56 1
  16    6   57 1
  17    6   58 1
  18    7   31 1
  19    8    9 2
  20    8   10 am
  21   10   17 1
  22   10   59 1
  23   11   60 1
  24   11   61 1
  25   12   13 1
  26   12   15 1
  27   12   62 1
  28   13   14 2
  29   15   16 1
  30   15   51 1
  31   15   63 1
  32   16   64 1
  33   16   65 1
  34   16   66 1
  35   17   18 1
  36   17   23 1
  37   17   24 1
  38   18   19 am
  39   18   20 2
  40   19   21 am
  41   19   67 1
  42   21   22 1
  43   21   27 2
  44   21   28 2
  45   22   25 1
  46   22   26 1
  47   22   68 1
  48   23   24 1
  49   23   29 1
  50   23   69 1
  51   24   70 1
  52   24   71 1
  53   25   26 1
  54   25   72 1
  55   25   73 1
  56   26   74 1
  57   26   75 1
  58   29   30 1
  59   29   76 1
  60   29   77 1
  61   30   78 1
  62   30   79 1
  63   30   80 1
  64   31   32 ar
  65   31   33 ar
  66   32   36 ar
  67   32   41 ar
  68   33   34 ar
  69   33   81 1
  70   34   35 ar
  71   34   37 1
  72   35   36 ar
  73   36   38 ar
  74   37   44 2
  75   37   47 1
  76   38   39 ar
  77   38   53 1
  78   39   40 ar
  79   39   42 1
  80   40   41 ar
  81   40   82 1
  82   41   83 1
  83   42   43 1
  84   43   84 1
  85   43   85 1
  86   43   86 1
  87   44   45 1
  88   45   46 2
  89   45   48 1
  90   46   47 1
  91   46   87 1
  92   48   49 1
  93   48   50 1
  94   48   88 1
  95   49   89 1
  96   49   90 1
  97   49   91 1
  98   50   92 1
  99   50   93 1
 100   50   94 1
 101   51   95 1
 102   51   96 1
 103   51   97 1
 104   52   98 1
 105   52   99 1
 106   52  100 1
 107   53  101 1
 108   53  102 1
 109   53  103 1

#	End of record

