#	Name: ASD06660241
#	Creating user name:	WinNT
#	Creation time:	15. 06. 2019 21:08

#	Modifying user name:	WinNT
#	Modification time:	15. 06. 2019 21:08

#	Program:	/corina/corina34_cracker 3.40 0067  02.08.2006

@<TRIPOS>MOLECULE
ASD06660241
  66   69    0    0    0
SMALL
NO_CHARGES


@<TRIPOS>ATOM
   1 C1            -0.5054     1.5084     1.0491 C.2     
   2 C2            -0.3295     0.0662     0.6492 C.3     
   3 C3            -1.3331    -0.2840    -0.4513 C.3     
   4 O4             0.4129     2.2846     0.9304 O.2     
   5 O5            -1.6840     1.9320     1.5320 O.3     
   6 C6            -1.2566    -1.7591    -0.7501 C.ar    
   7 C7            -2.0287    -2.6496    -0.0257 C.ar    
   8 C8            -1.9628    -4.0014    -0.2943 C.ar    
   9 C9            -1.1157    -4.4695    -1.2989 C.ar    
  10 C10           -0.3400    -3.5664    -2.0260 C.ar    
  11 C11           -0.4188    -2.2165    -1.7515 C.ar    
  12 O12           -1.7627    -6.8430    -0.9261 O.3     
  13 C13           -1.0398    -5.9182    -1.5917 C.2     
  14 N14           -0.2732    -6.4150    -2.5114 N.2     
  15 C15           -0.4583    -7.8791    -2.5330 C.3     
  16 C16           -1.7611    -8.0510    -1.7144 C.3     
  17 C17           -0.6420    -8.3856    -3.9650 C.3     
  18 N18            0.5052    -7.9758    -4.7788 N.pl3   
  19 C19            0.5629    -8.3231    -6.1235 C.ar    
  20 C20           -0.4722    -9.0601    -6.6903 C.ar    
  21 C21           -0.4019    -9.3988    -8.0293 C.ar    
  22 C22            0.7055    -8.9876    -8.7597 C.ar    
  23 C23            1.6960    -8.2586    -8.1332 C.ar    
  24 N24            1.5998    -7.9451    -6.8548 N.ar    
  25 C25            2.0574    -0.2544     1.0193 C.2     
  26 C26            3.4417    -0.3702     0.5168 C.ar    
  27 C27            4.0376    -1.6268     0.3874 C.ar    
  28 C28            5.3291    -1.7291    -0.0823 C.ar    
  29 C29            6.0372    -0.5873    -0.4258 C.ar    
  30 C30            5.4506     0.6625    -0.2993 C.ar    
  31 C31            4.1572     0.7758     0.1641 C.ar    
  32 O32            1.8424    -0.2625     2.2158 O.2     
  33 N33            1.0328    -0.1398     0.1513 N.am    
  34 C34            3.5186     2.1346     0.2952 C.3     
  35 F35            7.3034    -0.6931    -0.8850 F       
  36 C36            3.2697    -2.8684     0.7613 C.3     
  37 C37            2.4467    -3.3399    -0.4392 C.3     
  38 H38           -0.5008    -0.5743     1.5144 H       
  39 H39           -2.3400    -0.0325    -0.1182 H       
  40 H40           -1.0965     0.2820    -1.3523 H       
  41 H41           -1.7489     2.8657     1.7751 H       
  42 H42           -2.6842    -2.2860     0.7518 H       
  43 H43           -2.5655    -4.6957     0.2724 H       
  44 H44            0.3179    -3.9228    -2.8048 H       
  45 H45            0.1782    -1.5159    -2.3165 H       
  46 H46            0.3764    -8.3843    -2.0469 H       
  47 H47           -1.7095    -8.9340    -1.0774 H       
  48 H48           -2.6319    -8.0927    -2.3686 H       
  49 H49           -0.7134    -9.4733    -3.9593 H       
  50 H50           -1.5549    -7.9637    -4.3853 H       
  51 H51            1.2245    -7.4621    -4.3793 H       
  52 H52           -1.3190    -9.3639    -6.0926 H       
  53 H53           -1.1902    -9.9705    -8.4964 H       
  54 H54            0.7909    -9.2360    -9.8073 H       
  55 H55            2.5588    -7.9369    -8.6974 H       
  56 H56            5.7908    -2.7003    -0.1827 H       
  57 H57            6.0064     1.5485    -0.5682 H       
  58 H58            1.1974    -0.1938    -0.8031 H       
  59 H59            3.7199     2.5363     1.2882 H       
  60 H60            3.9322     2.8046    -0.4585 H       
  61 H61            2.4419     2.0455     0.1506 H       
  62 H62            3.9676    -3.6529     1.0539 H       
  63 H63            2.6028    -2.6462     1.5943 H       
  64 H64            1.8154    -4.1768    -0.1408 H       
  65 H65            1.8208    -2.5213    -0.7946 H       
  66 H66            3.1175    -3.6574    -1.2375 H       
@<TRIPOS>BOND
   1    1    2 1
   2    1    4 2
   3    1    5 1
   4    2    3 1
   5    2   33 1
   6    2   38 1
   7    3    6 1
   8    3   39 1
   9    3   40 1
  10    5   41 1
  11    6    7 ar
  12    6   11 ar
  13    7    8 ar
  14    7   42 1
  15    8    9 ar
  16    8   43 1
  17    9   10 ar
  18    9   13 1
  19   10   11 ar
  20   10   44 1
  21   11   45 1
  22   12   13 1
  23   12   16 1
  24   13   14 2
  25   14   15 1
  26   15   16 1
  27   15   17 1
  28   15   46 1
  29   16   47 1
  30   16   48 1
  31   17   18 1
  32   17   49 1
  33   17   50 1
  34   18   19 1
  35   18   51 1
  36   19   20 ar
  37   19   24 ar
  38   20   21 ar
  39   20   52 1
  40   21   22 ar
  41   21   53 1
  42   22   23 ar
  43   22   54 1
  44   23   24 ar
  45   23   55 1
  46   25   26 1
  47   25   32 2
  48   25   33 am
  49   26   27 ar
  50   26   31 ar
  51   27   28 ar
  52   27   36 1
  53   28   29 ar
  54   28   56 1
  55   29   30 ar
  56   29   35 1
  57   30   31 ar
  58   30   57 1
  59   31   34 1
  60   33   58 1
  61   34   59 1
  62   34   60 1
  63   34   61 1
  64   36   37 1
  65   36   62 1
  66   36   63 1
  67   37   64 1
  68   37   65 1
  69   37   66 1

#	End of record

