#	Name: ASD01915921
#	Creating user name:	WinNT
#	Creation time:	15. 06. 2019 20:06

#	Modifying user name:	WinNT
#	Modification time:	15. 06. 2019 20:06

#	Program:	/corina/corina34_cracker 3.40 0067  02.08.2006

@<TRIPOS>MOLECULE
ASD01915921
  43   46    0    0    0
SMALL
NO_CHARGES


@<TRIPOS>ATOM
   1 C1            -0.0167     1.3778     0.0096 C.2     
   2 C2             0.0021    -0.0041     0.0020 C.2     
   3 C3            -1.3061    -0.7781    -0.0014 C.3     
   4 C4            -2.3692     0.0496     0.7181 C.3     
   5 N5            -2.4010     1.4359     0.2673 N.am    
   6 C6            -1.2676     2.1378     0.0348 C.2     
   7 O7            -1.2873     3.3419    -0.1445 O.2     
   8 S8             1.6346     1.9576    -0.0030 S.3     
   9 C9             2.2093     0.3463    -0.0096 C.2     
  10 N10            1.2158    -0.4933    -0.0052 N.2     
  11 C11            4.4732     1.0547    -0.0212 C.3     
  12 C12            5.8643     0.4753    -0.0308 C.ar    
  13 C13            6.4952     0.2123    -1.2320 C.ar    
  14 C14            6.5117     0.2120     1.1622 C.ar    
  15 C15            7.7875    -0.3195     1.1535 C.ar    
  16 C16            8.4162    -0.5882    -0.0482 C.ar    
  17 C17            7.7714    -0.3193    -1.2408 C.ar    
  18 O18            3.5154    -0.0058    -0.0181 O.3     
  19 C19           -4.2503     2.7395     1.1131 C.ar    
  20 C20           -3.6399     2.0589     0.0692 C.ar    
  21 C21           -5.4723     3.3538     0.9157 C.ar    
  22 C22           -6.0888     3.2909    -0.3222 C.ar    
  23 C23           -5.4825     2.6130    -1.3667 C.ar    
  24 C24           -4.2599     1.9967    -1.1743 C.ar    
  25 F25           -7.2839     3.8918    -0.5117 F       
  26 C26            8.4935    -0.6056     2.4538 C.3     
  27 F27           -3.6681     1.3353    -2.1929 F       
  28 H28           -1.6194    -0.9615    -1.0292 H       
  29 H29           -1.1701    -1.7277     0.5162 H       
  30 H30           -3.3459    -0.4008     0.5409 H       
  31 H31           -2.1645     0.0319     1.7886 H       
  32 H32            4.3406     1.6667     0.8710 H       
  33 H33            4.3302     1.6709    -0.9089 H       
  34 H34            5.9911     0.4219    -2.1639 H       
  35 H35            6.0205     0.4219     2.1009 H       
  36 H36            9.4133    -1.0031    -0.0550 H       
  37 H37            8.2626    -0.5292    -2.1795 H       
  38 H38           -3.7727     2.7852     2.0806 H       
  39 H39           -5.9472     3.8834     1.7284 H       
  40 H40           -5.9652     2.5652    -2.3316 H       
  41 H41            8.2686    -1.6232     2.7730 H       
  42 H42            9.5692    -0.4979     2.3145 H       
  43 H43            8.1534     0.0973     3.2142 H       
@<TRIPOS>BOND
   1    1    2 2
   2    1    8 1
   3    1    6 1
   4    2    3 1
   5    2   10 1
   6    3    4 1
   7    3   28 1
   8    3   29 1
   9    4    5 1
  10    4   30 1
  11    4   31 1
  12    5    6 am
  13    5   20 1
  14    6    7 2
  15    8    9 1
  16    9   10 2
  17    9   18 1
  18   11   12 1
  19   11   18 1
  20   11   32 1
  21   11   33 1
  22   12   13 ar
  23   12   14 ar
  24   13   17 ar
  25   13   34 1
  26   14   15 ar
  27   14   35 1
  28   15   16 ar
  29   15   26 1
  30   16   17 ar
  31   16   36 1
  32   17   37 1
  33   19   21 ar
  34   19   20 ar
  35   19   38 1
  36   20   24 ar
  37   21   22 ar
  38   21   39 1
  39   22   23 ar
  40   22   25 1
  41   23   24 ar
  42   23   40 1
  43   24   27 1
  44   26   41 1
  45   26   42 1
  46   26   43 1

#	End of record

