#	Name: ASD01380013
#	Creating user name:	WinNT
#	Creation time:	15. 06. 2019 19:16

#	Modifying user name:	WinNT
#	Modification time:	15. 06. 2019 19:16

#	Program:	/corina/corina34_cracker 3.40 0067  02.08.2006

@<TRIPOS>MOLECULE
ASD01380013
  61   64    0    0    0
SMALL
NO_CHARGES


@<TRIPOS>ATOM
   1 O1             0.1799     1.4986    -0.6153 O.3     
   2 C2             0.2686     0.0747    -0.5336 C.3     
   3 C3            -1.1164    -0.5487    -0.2339 C.3     
   4 O4            -0.9764    -1.7039     0.6346 O.3     
   5 C5            -1.0590    -1.4851     1.9618 C.2     
   6 O6            -1.2428    -0.3597     2.3818 O.2     
   7 C7            -0.9263    -2.6101     2.9033 C.ar    
   8 C8            -0.8341    -3.9202     2.4251 C.ar    
   9 C9            -0.7096    -4.9684     3.3119 C.ar    
  10 Cl10          -0.5953    -6.5949     2.7159 Cl      
  11 C11           -0.6749    -4.7301     4.6776 C.ar    
  12 C12           -0.7653    -3.4422     5.1647 C.ar    
  13 C13           -0.8858    -2.3726     4.2867 C.ar    
  14 N14           -0.9765    -1.0755     4.7751 N.pl3   
  15 C15           -1.6461    -0.9747    -1.6169 C.3     
  16 O16           -0.6674    -0.5753    -2.5909 O.3     
  17 C17            0.6084    -0.5385    -1.9160 C.3     
  18 N18            1.1495    -1.8911    -1.7614 N.pl3   
  19 C19            0.4392    -3.0537    -1.8045 C.2     
  20 N20            1.2358    -4.0680    -1.6305 N.2     
  21 C21            2.5042    -3.6219    -1.4653 C.ar    
  22 C22            2.4649    -2.2203    -1.5527 C.ar    
  23 N23            3.5952    -1.5330    -1.4229 N.ar    
  24 C24            4.7374    -2.1532    -1.2153 C.ar    
  25 N25            4.8241    -3.4681    -1.1258 N.ar    
  26 C26            3.7481    -4.2385    -1.2465 C.ar    
  27 N27            3.8488    -5.6154    -1.1508 N.pl3   
  28 C28           -2.9779    -0.2772    -1.9012 C.3     
  29 O29           -3.5182    -0.7653    -3.1308 O.3     
  30 P30           -4.9159    -0.2489    -3.7407 P.3     
  31 O31           -4.8819     1.2248    -3.8728 O.2     
  32 O32           -5.1471    -0.9124    -5.1893 O.3     
  33 P33           -6.0677    -0.5391    -6.4563 P.3     
  34 O34           -5.9666     0.9120    -6.7291 O.2     
  35 O35           -5.5666    -1.3637    -7.7452 O.3     
  36 P36           -5.7511    -1.1767    -9.3336 P.3     
  37 O37           -5.5229     0.2407    -9.6932 O.2     
  38 O38           -4.6893    -2.1050   -10.1101 O.3     
  39 O39           -7.2454    -1.6032    -9.7543 O.3     
  40 O40           -7.5992    -0.9199    -6.1377 O.3     
  41 O41           -6.1192    -0.6721    -2.7583 O.3     
  42 H42            1.0225     1.9351    -0.8016 H       
  43 H43            1.0007    -0.2252     0.2161 H       
  44 H44           -1.7774     0.1901     0.2191 H       
  45 H45           -0.8607    -4.1111     1.3625 H       
  46 H46           -0.5767    -5.5579     5.3643 H       
  47 H47           -0.7381    -3.2653     6.2298 H       
  48 H48           -1.0579    -0.9211     5.7293 H       
  49 H49           -0.9584    -0.3240     4.1620 H       
  50 H50           -1.7782    -2.0562    -1.6461 H       
  51 H51            1.3101     0.0973    -2.4559 H       
  52 H52           -0.6274    -3.1229    -1.9596 H       
  53 H53            5.6375    -1.5649    -1.1148 H       
  54 H54            4.7122    -6.0288    -0.9939 H       
  55 H55            3.0561    -6.1671    -1.2407 H       
  56 H56           -3.6764    -0.4832    -1.0902 H       
  57 H57           -2.8160     0.7981    -1.9770 H       
  58 H58           -4.7432    -2.0428   -11.0736 H       
  59 H59           -7.4651    -2.5220    -9.5478 H       
  60 H60           -7.7402    -1.8578    -5.9489 H       
  61 H61           -6.2011    -1.6263    -2.6252 H       
@<TRIPOS>BOND
   1    1    2 1
   2    1   42 1
   3    2    3 1
   4    2   17 1
   5    2   43 1
   6    3    4 1
   7    3   15 1
   8    3   44 1
   9    4    5 1
  10    5    6 2
  11    5    7 1
  12    7    8 ar
  13    7   13 ar
  14    8    9 ar
  15    8   45 1
  16    9   10 1
  17    9   11 ar
  18   11   12 ar
  19   11   46 1
  20   12   13 ar
  21   12   47 1
  22   13   14 1
  23   14   48 1
  24   14   49 1
  25   15   16 1
  26   15   28 1
  27   15   50 1
  28   16   17 1
  29   17   18 1
  30   17   51 1
  31   18   19 1
  32   18   22 1
  33   19   20 2
  34   19   52 1
  35   20   21 1
  36   21   22 ar
  37   21   26 ar
  38   22   23 ar
  39   23   24 ar
  40   24   25 ar
  41   24   53 1
  42   25   26 ar
  43   26   27 1
  44   27   54 1
  45   27   55 1
  46   28   29 1
  47   28   56 1
  48   28   57 1
  49   29   30 1
  50   30   31 2
  51   30   32 1
  52   30   41 1
  53   32   33 1
  54   33   34 2
  55   33   35 1
  56   33   40 1
  57   35   36 1
  58   36   37 2
  59   36   38 1
  60   36   39 1
  61   38   58 1
  62   39   59 1
  63   40   60 1
  64   41   61 1

#	End of record

