#	Name: ASD02039313
#	Creating user name:	WinNT
#	Creation time:	15. 06. 2019 20:18

#	Modifying user name:	WinNT
#	Modification time:	15. 06. 2019 20:18

#	Program:	/corina/corina34_cracker 3.40 0067  02.08.2006

@<TRIPOS>MOLECULE
ASD02039313
  45   47    0    0    0
SMALL
NO_CHARGES


@<TRIPOS>ATOM
   1 C1            -0.1338     1.5605    -0.1853 C.ar    
   2 C2            -0.1551     0.1792    -0.0556 C.ar    
   3 C3            -1.3618    -0.4911    -0.1376 C.ar    
   4 N4            -2.4873     0.1641    -0.3368 N.ar    
   5 C5            -2.5100     1.4844    -0.4660 C.ar    
   6 C6            -1.3317     2.2237    -0.3886 C.ar    
   7 C7            -3.8011     2.1796    -0.6891 C.ar    
   8 C8             1.1638     2.3222    -0.1004 C.3     
   9 N9             1.8165     2.3225    -1.4120 N.am    
  10 C10            1.4074     3.2896    -2.4336 C.3     
  11 C11            2.7933     1.4331    -1.6788 C.2     
  12 C12            3.1445     0.3993    -0.6815 C.2     
  13 N13            4.1148    -0.4818    -0.7891 N.2     
  14 C14            2.5761     4.2264    -2.7461 C.3     
  15 N15            2.5315     0.1974     0.4991 N.2     
  16 C16            3.1359    -0.8050     1.0843 C.2     
  17 N17            4.1226    -1.2187     0.2678 N.pl3   
  18 O18            3.3857     1.4807    -2.7392 O.2     
  19 C19            5.0491    -2.3215     0.5355 C.3     
  20 C20            0.9966     2.5450    -3.7054 C.3     
  21 C21           -4.9945     1.4540    -0.7642 C.ar    
  22 C22           -3.8444     3.5652    -0.8211 C.ar    
  23 N23           -4.9902     4.1852    -1.0189 N.ar    
  24 C24           -6.1329     3.5277    -1.0995 C.ar    
  25 C25           -6.1723     2.1474    -0.9729 C.ar    
  26 F26           -7.2807     4.2105    -1.3033 F       
  27 H27            0.7621    -0.3673     0.1076 H       
  28 H28           -1.3818    -1.5663    -0.0374 H       
  29 H29           -1.3516     3.2984    -0.4939 H       
  30 H30            0.9630     3.3489     0.2057 H       
  31 H31            1.8174     1.8463     0.6306 H       
  32 H32            0.5633     3.8724    -2.0649 H       
  33 H33            3.4477     3.6373    -3.0313 H       
  34 H34            2.3011     4.8891    -3.5666 H       
  35 H35            2.8120     4.8202    -1.8629 H       
  36 H36            2.8894    -1.2228     2.0492 H       
  37 H37            4.6296    -3.2504     0.1492 H       
  38 H38            6.0024    -2.1221     0.0459 H       
  39 H39            5.2048    -2.4125     1.6104 H       
  40 H40            0.1117     1.9414    -3.5032 H       
  41 H41            0.7729     3.2655    -4.4921 H       
  42 H42            1.8123     1.8975    -4.0269 H       
  43 H43           -4.9959     0.3788    -0.6621 H       
  44 H44           -2.9303     4.1371    -0.7605 H       
  45 H45           -7.1121     1.6195    -1.0408 H       
@<TRIPOS>BOND
   1    1    2 ar
   2    1    8 1
   3    1    6 ar
   4    2    3 ar
   5    2   27 1
   6    3    4 ar
   7    3   28 1
   8    4    5 ar
   9    5    6 ar
  10    5    7 1
  11    6   29 1
  12    7   21 ar
  13    7   22 ar
  14    8    9 1
  15    8   30 1
  16    8   31 1
  17    9   10 1
  18    9   11 am
  19   10   20 1
  20   10   14 1
  21   10   32 1
  22   11   12 1
  23   11   18 2
  24   12   13 2
  25   12   15 1
  26   13   17 1
  27   14   33 1
  28   14   34 1
  29   14   35 1
  30   15   16 2
  31   16   17 1
  32   16   36 1
  33   17   19 1
  34   19   37 1
  35   19   38 1
  36   19   39 1
  37   20   40 1
  38   20   41 1
  39   20   42 1
  40   21   25 ar
  41   21   43 1
  42   22   23 ar
  43   22   44 1
  44   23   24 ar
  45   24   25 ar
  46   24   26 1
  47   25   45 1

#	End of record

