#	Name: ASD08070633
#	Creating user name:	WinNT
#	Creation time:	15. 06. 2019 21:15

#	Modifying user name:	WinNT
#	Modification time:	15. 06. 2019 21:15

#	Program:	/corina/corina34_cracker 3.40 0067  02.08.2006

@<TRIPOS>MOLECULE
ASD08070633
  42   43    0    0    0
SMALL
NO_CHARGES


@<TRIPOS>ATOM
   1 O1            -0.0161     1.3372     0.0094 O.3     
   2 C2             0.0021    -0.0041     0.0020 C.2     
   3 N3             1.2272    -0.4391    -0.0120 N.2     
   4 C4             2.0712     0.6254    -0.0144 C.ar    
   5 C5             1.2626     1.7751    -0.0005 C.ar    
   6 C6             3.4633     0.7527    -0.0270 C.ar    
   7 C7             4.0355     1.9901    -0.0254 C.ar    
   8 C8             3.2369     3.1405    -0.0111 C.ar    
   9 C9             1.8467     3.0281     0.0007 C.ar    
  10 C10            3.8679     4.4751    -0.0085 C.2     
  11 O11            3.1758     5.4747     0.0039 O.2     
  12 N12            5.2110     4.5855    -0.0198 N.am    
  13 C13            5.8372     5.9099    -0.0173 C.3     
  14 C14            7.2425     5.8084     0.5792 C.3     
  15 C15            7.1437     5.4045     2.0516 C.3     
  16 C16            8.5490     5.3031     2.6480 C.3     
  17 C17            5.9287     6.4336    -1.4519 C.3     
  18 C18            4.5194     6.6533    -2.0054 C.3     
  19 C19            4.6108     7.1770    -3.4401 C.3     
  20 C20           -1.2230    -0.8817     0.0098 C.3     
  21 Cl21          -1.6943    -1.2408     1.7127 Cl      
  22 H22            4.0858    -0.1297    -0.0377 H       
  23 H23            5.1113     2.0838    -0.0348 H       
  24 H24            1.2302     3.9148     0.0109 H       
  25 H25            5.7631     3.7880    -0.0297 H       
  26 H26            5.2368     6.5945     0.5819 H       
  27 H27            7.8152     5.0580     0.0342 H       
  28 H28            7.7414     6.7743     0.5001 H       
  29 H29            6.5711     6.1550     2.5965 H       
  30 H30            6.6448     4.4386     2.1307 H       
  31 H31            8.4786     5.0153     3.6970 H       
  32 H32            9.1217     4.5526     2.1031 H       
  33 H33            9.0479     6.2690     2.5689 H       
  34 H34            6.4735     7.3776    -1.4601 H       
  35 H35            6.4531     5.7061    -2.0715 H       
  36 H36            3.9745     5.7092    -1.9973 H       
  37 H37            3.9950     7.3808    -1.3859 H       
  38 H38            3.6068     7.3335    -3.8345 H       
  39 H39            5.1556     8.1210    -3.4483 H       
  40 H40            5.1352     6.4495    -4.0597 H       
  41 H41           -2.0418    -0.3670    -0.4930 H       
  42 H42           -1.0054    -1.8140    -0.5113 H       
@<TRIPOS>BOND
   1    1    2 1
   2    1    5 1
   3    2    3 2
   4    2   20 1
   5    3    4 1
   6    4    5 ar
   7    4    6 ar
   8    5    9 ar
   9    6    7 ar
  10    6   22 1
  11    7    8 ar
  12    7   23 1
  13    8    9 ar
  14    8   10 1
  15    9   24 1
  16   10   11 2
  17   10   12 am
  18   12   13 1
  19   12   25 1
  20   13   14 1
  21   13   17 1
  22   13   26 1
  23   14   15 1
  24   14   27 1
  25   14   28 1
  26   15   16 1
  27   15   29 1
  28   15   30 1
  29   16   31 1
  30   16   32 1
  31   16   33 1
  32   17   18 1
  33   17   34 1
  34   17   35 1
  35   18   19 1
  36   18   36 1
  37   18   37 1
  38   19   38 1
  39   19   39 1
  40   19   40 1
  41   20   21 1
  42   20   41 1
  43   20   42 1

#	End of record

