#	Name: ASD03730180
#	Creating user name:	WinNT
#	Creation time:	15. 06. 2019 20:44

#	Modifying user name:	WinNT
#	Modification time:	15. 06. 2019 20:44

#	Program:	/corina/corina34_cracker 3.40 0067  02.08.2006

@<TRIPOS>MOLECULE
ASD03730180
  46   50    0    0    0
SMALL
NO_CHARGES


@<TRIPOS>ATOM
   1 C1            -0.0187     1.5021     0.0185 C.2     
   2 C2             0.0011    -0.0045    -0.0114 C.3     
   3 O3             1.0236     2.1220     0.0366 O.2     
   4 N4            -1.1946     2.1607     0.0195 N.am    
   5 C5            -1.2153     3.5564     0.1329 C.ar    
   6 C6            -2.3326     4.1965     0.6587 C.ar    
   7 C7            -2.3489     5.5747     0.7689 C.ar    
   8 C8            -1.2559     6.3153     0.3567 C.ar    
   9 C9            -0.1445     5.6810    -0.1662 C.ar    
  10 C10           -0.1190     4.3036    -0.2739 C.ar    
  11 F11           -3.4003     3.4729     1.0609 F       
  12 O12            5.6399    -1.2382     1.4375 O.3     
  13 C13            4.5681    -0.2998     1.2247 C.3     
  14 C14            3.4548    -1.1891     0.6539 C.3     
  15 C15            3.8051    -2.5570     1.1749 C.ar    
  16 C16            5.1193    -2.4836     1.6284 C.ar    
  17 C17            5.7044    -3.6169     2.1846 C.ar    
  18 C18            4.9930    -4.7979     2.2731 C.ar    
  19 C19            3.6883    -4.8629     1.8085 C.ar    
  20 C20            3.0982    -3.7370     1.2598 C.ar    
  21 N21            1.3886    -0.4747    -0.0131 N.am    
  22 C22            2.0948    -0.7389     1.1043 C.2     
  23 C23            3.4133    -1.1418    -0.8447 C.ar    
  24 C24            4.3299    -1.4294    -1.8314 C.ar    
  25 C25            3.9839    -1.2822    -3.1628 C.ar    
  26 C26            2.7157    -0.8458    -3.5002 C.ar    
  27 C27            1.7939    -0.5569    -2.5157 C.ar    
  28 C28            2.1337    -0.7015    -1.1727 C.ar    
  29 O29            1.7077    -0.6341     2.2489 O.2     
  30 F30            5.5707    -5.8930     2.8136 F       
  31 F31            2.9957    -6.0199     1.8910 F       
  32 H32           -0.5129    -0.3921     0.8682 H       
  33 H33           -0.5030    -0.3567    -0.9114 H       
  34 H34           -2.0265     1.6680    -0.0584 H       
  35 H35           -3.2158     6.0733     1.1767 H       
  36 H36           -1.2709     7.3917     0.4433 H       
  37 H37            0.7070     6.2627    -0.4870 H       
  38 H38            0.7519     3.8092    -0.6783 H       
  39 H39            4.2573     0.1527     2.1664 H       
  40 H40            4.8603     0.4645     0.5046 H       
  41 H41            6.7202    -3.5733     2.5487 H       
  42 H42            2.0819    -3.7836     0.8975 H       
  43 H43            5.3198    -1.7699    -1.5656 H       
  44 H44            4.7027    -1.5072    -3.9368 H       
  45 H45            2.4456    -0.7311    -4.5396 H       
  46 H46            0.8057    -0.2161    -2.7871 H       
@<TRIPOS>BOND
   1    1    2 1
   2    1    3 2
   3    1    4 am
   4    2   21 1
   5    2   32 1
   6    2   33 1
   7    4    5 1
   8    4   34 1
   9    5    6 ar
  10    5   10 ar
  11    6    7 ar
  12    6   11 1
  13    7    8 ar
  14    7   35 1
  15    8    9 ar
  16    8   36 1
  17    9   10 ar
  18    9   37 1
  19   10   38 1
  20   12   13 1
  21   12   16 1
  22   13   14 1
  23   13   39 1
  24   13   40 1
  25   14   15 1
  26   14   22 1
  27   14   23 1
  28   15   16 ar
  29   15   20 ar
  30   16   17 ar
  31   17   18 ar
  32   17   41 1
  33   18   19 ar
  34   18   30 1
  35   19   20 ar
  36   19   31 1
  37   20   42 1
  38   21   22 am
  39   21   28 1
  40   22   29 2
  41   23   24 ar
  42   23   28 ar
  43   24   25 ar
  44   24   43 1
  45   25   26 ar
  46   25   44 1
  47   26   27 ar
  48   26   45 1
  49   27   28 ar
  50   27   46 1

#	End of record

