#	Name: ASD01001109
#	Creating user name:	WinNT
#	Creation time:	15. 06. 2019 18:55

#	Modifying user name:	WinNT
#	Modification time:	15. 06. 2019 18:55

#	Program:	/corina/corina34_cracker 3.40 0067  02.08.2006

@<TRIPOS>MOLECULE
ASD01001109
  42   43    0    0    0
SMALL
NO_CHARGES


@<TRIPOS>ATOM
   1 C1            -0.0159     1.3211     0.0093 C.2     
   2 C2             0.0021    -0.0041     0.0020 C.2     
   3 C3            -1.3199    -0.5912     0.0115 C.2     
   4 C4            -2.3185     0.3485     0.0260 C.2     
   5 S5            -1.6641     1.9223     0.0359 S.3     
   6 N6            -3.6730     0.0585     0.0367 N.am    
   7 C7            -4.5762     1.0587     0.0508 C.2     
   8 C8            -1.5658    -2.0363     0.0056 C.2     
   9 O9            -1.6577    -2.6422     1.0572 O.2     
  10 N10           -1.6902    -2.6939    -1.1642 N.am    
  11 C11           -1.5796    -1.9646    -2.4299 C.3     
  12 C12           -1.9360    -4.1382    -1.1701 C.3     
  13 C13           -0.1191    -1.9526    -2.8857 C.3     
  14 C14           -3.4435    -4.3990    -1.1570 C.3     
  15 C15           -6.0088     0.7520     0.0621 C.2     
  16 O16           -4.2017     2.2168     0.0541 O.2     
  17 C17           -7.0173     1.6747     0.0766 C.2     
  18 C18           -8.2705     1.1100     0.0843 C.2     
  19 C19           -8.2904    -0.2281     0.0763 C.2     
  20 S20           -6.7066    -0.8619     0.0514 S.3     
  21 C21            1.2129     2.1934     0.0023 C.3     
  22 C22            1.2710    -0.8168    -0.0149 C.3     
  23 H23           -3.9714    -0.8645     0.0341 H       
  24 H24           -2.1923    -2.4548    -3.1865 H       
  25 H25           -1.9251    -0.9402    -2.2904 H       
  26 H26           -1.4990    -4.5774    -2.0669 H       
  27 H27           -1.4818    -4.5876    -0.2870 H       
  28 H28            0.4936    -1.4624    -2.1292 H       
  29 H29            0.2264    -2.9769    -3.0253 H       
  30 H30           -0.0368    -1.4099    -3.8274 H       
  31 H31           -3.8977    -3.9496    -2.0400 H       
  32 H32           -3.6264    -5.4735    -1.1613 H       
  33 H33           -3.8805    -3.9597    -0.2602 H       
  34 H34           -6.8464     2.7411     0.0819 H       
  35 H35           -9.1731     1.7029     0.0962 H       
  36 H36           -9.1893    -0.8268     0.0812 H       
  37 H37            1.4994     2.4093    -1.0270 H       
  38 H38            0.9990     3.1267     0.5232 H       
  39 H39            2.0292     1.6753     0.5055 H       
  40 H40            1.5869    -1.0186     1.0086 H       
  41 H41            1.0920    -1.7593    -0.5324 H       
  42 H42            2.0520    -0.2604    -0.5332 H       
@<TRIPOS>BOND
   1    1    2 2
   2    1   21 1
   3    1    5 1
   4    2    3 1
   5    2   22 1
   6    3    4 2
   7    3    8 1
   8    4    5 1
   9    4    6 1
  10    6    7 am
  11    6   23 1
  12    7   15 1
  13    7   16 2
  14    8    9 2
  15    8   10 am
  16   10   11 1
  17   10   12 1
  18   11   13 1
  19   11   24 1
  20   11   25 1
  21   12   14 1
  22   12   26 1
  23   12   27 1
  24   13   28 1
  25   13   29 1
  26   13   30 1
  27   14   31 1
  28   14   32 1
  29   14   33 1
  30   15   17 2
  31   15   20 1
  32   17   18 1
  33   17   34 1
  34   18   19 2
  35   18   35 1
  36   19   20 1
  37   19   36 1
  38   21   37 1
  39   21   38 1
  40   21   39 1
  41   22   40 1
  42   22   41 1
  43   22   42 1

#	End of record

