#	Name: ASD04910053
#	Creating user name:	WinNT
#	Creation time:	15. 06. 2019 20:55

#	Modifying user name:	WinNT
#	Modification time:	15. 06. 2019 20:55

#	Program:	/corina/corina34_cracker 3.40 0067  02.08.2006

@<TRIPOS>MOLECULE
ASD04910053
  26   27    0    0    0
SMALL
NO_CHARGES


@<TRIPOS>ATOM
   1 C1            -0.0168     1.3842     0.0097 C.ar    
   2 C2             0.0021    -0.0041     0.0020 C.ar    
   3 C3             1.2153    -0.6790    -0.0132 C.ar    
   4 C4             2.3994     0.0319    -0.0207 C.ar    
   5 C5             2.3774     1.4145    -0.0130 C.ar    
   6 C6             1.1707     2.0896     0.0021 C.ar    
   7 C7             3.6712     2.1872    -0.0212 C.3     
   8 O8             4.0673     2.4387    -1.3710 O.3     
   9 N9            -1.2014    -0.7228     0.0101 N.pl3   
  10 C10           -1.3242    -2.0695     0.0041 C.2     
  11 C11           -2.6453    -2.3625     0.0156 C.2     
  12 C12           -3.3540    -1.1561     0.0291 C.2     
  13 N13           -2.4898    -0.1733     0.0320 N.2     
  14 C14           -3.2469    -3.7442     0.0138 C.3     
  15 F15           -3.4199    -4.1793     1.3321 F       
  16 F16           -4.4869    -3.7120    -0.6332 F       
  17 F17           -2.3924    -4.6240    -0.6594 F       
  18 H18           -0.9590     1.9119     0.0170 H       
  19 H19            1.2330    -1.7588    -0.0188 H       
  20 H20            3.3434    -0.4925    -0.0322 H       
  21 H21            1.1567     3.1695     0.0084 H       
  22 H22            3.5318     3.1348     0.4990 H       
  23 H23            4.4443     1.6067     0.4821 H       
  24 H24            4.8942     2.9334    -1.4526 H       
  25 H25           -0.5136    -2.7830    -0.0083 H       
  26 H26           -4.4291    -1.0537     0.0400 H       
@<TRIPOS>BOND
   1    1    2 ar
   2    1    6 ar
   3    1   18 1
   4    2    3 ar
   5    2    9 1
   6    3    4 ar
   7    3   19 1
   8    4    5 ar
   9    4   20 1
  10    5    6 ar
  11    5    7 1
  12    6   21 1
  13    7    8 1
  14    7   22 1
  15    7   23 1
  16    8   24 1
  17    9   10 1
  18    9   13 1
  19   10   11 2
  20   10   25 1
  21   11   12 1
  22   11   14 1
  23   12   13 2
  24   12   26 1
  25   14   15 1
  26   14   16 1
  27   14   17 1

#	End of record

