#	Name: ASD01900061
#	Creating user name:	WinNT
#	Creation time:	15. 06. 2019 19:51

#	Modifying user name:	WinNT
#	Modification time:	15. 06. 2019 19:51

#	Program:	/corina/corina34_cracker 3.40 0067  02.08.2006

@<TRIPOS>MOLECULE
ASD01900061
  36   37    0    0    0
SMALL
NO_CHARGES


@<TRIPOS>ATOM
   1 C1            -0.3422     1.2240    -0.0181 C.3     
   2 C2            -0.0768    -0.2797     0.0782 C.3     
   3 C3             0.6336    -0.7544    -1.1910 C.3     
   4 C4             1.9622    -0.0106    -1.3404 C.3     
   5 C5             1.6968     1.4931    -1.4366 C.3     
   6 C6             0.9864     1.9679    -0.1675 C.3     
   7 C7             2.6620    -0.4782    -2.5905 C.2     
   8 N8             2.9980    -1.7760    -2.7292 N.am    
   9 N9             0.4608     3.0394    -2.9199 N.am    
  10 C10            0.8265     1.7739    -2.6344 C.2     
  11 O11            0.4550     0.8612    -3.3415 O.2     
  12 O12            2.9227     0.3133    -3.4717 O.2     
  13 C13            3.5588    -2.2291    -3.9284 C.ar    
  14 C14            4.4216    -1.4110    -4.6456 C.ar    
  15 C15            3.2579    -3.4998    -4.4005 C.ar    
  16 C16            3.8131    -3.9451    -5.5856 C.ar    
  17 C17            4.6682    -3.1256    -6.3013 C.ar    
  18 C18            4.9742    -1.8610    -5.8301 C.ar    
  19 Cl19           3.4379    -5.5338    -6.1762 Cl      
  20 Cl20           6.0470    -0.8358    -6.7312 Cl      
  21 H21           -0.9717     1.4272    -0.8844 H       
  22 H22           -0.8483     1.5623     0.8861 H       
  23 H23            0.5527    -0.4828     0.9445 H       
  24 H24           -1.0234    -0.8096     0.1846 H       
  25 H25            0.8227    -1.8257    -1.1224 H       
  26 H26            0.0041    -0.5513    -2.0573 H       
  27 H27            2.5918    -0.2137    -0.4740 H       
  28 H28            2.6434     2.0231    -1.5430 H       
  29 H29            0.7973     3.0392    -0.2360 H       
  30 H30            1.6159     1.7648     0.6989 H       
  31 H31            2.8511    -2.3959    -1.9978 H       
  32 H32            0.7579     3.7693    -2.3544 H       
  33 H33           -0.0994     3.2201    -3.6909 H       
  34 H34            4.6605    -0.4238    -4.2785 H       
  35 H35            2.5908    -4.1399    -3.8422 H       
  36 H36            5.1013    -3.4755    -7.2267 H       
@<TRIPOS>BOND
   1    1    2 1
   2    1    6 1
   3    1   21 1
   4    1   22 1
   5    2    3 1
   6    2   23 1
   7    2   24 1
   8    3    4 1
   9    3   25 1
  10    3   26 1
  11    4    5 1
  12    4    7 1
  13    4   27 1
  14    5    6 1
  15    5   10 1
  16    5   28 1
  17    6   29 1
  18    6   30 1
  19    7    8 am
  20    7   12 2
  21    8   13 1
  22    8   31 1
  23    9   10 am
  24    9   32 1
  25    9   33 1
  26   10   11 2
  27   13   14 ar
  28   13   15 ar
  29   14   18 ar
  30   14   34 1
  31   15   16 ar
  32   15   35 1
  33   16   17 ar
  34   16   19 1
  35   17   18 ar
  36   17   36 1
  37   18   20 1

#	End of record

