#	Name: ASD08178491
#	Creating user name:	WinNT
#	Creation time:	15. 06. 2019 21:19

#	Modifying user name:	WinNT
#	Modification time:	15. 06. 2019 21:19

#	Program:	/corina/corina34_cracker 3.40 0067  02.08.2006

@<TRIPOS>MOLECULE
ASD08178491
  62   65    0    0    0
SMALL
NO_CHARGES


@<TRIPOS>ATOM
   1 N1            -0.0168     1.3902     0.0097 N.am    
   2 C2            -0.2173     0.0103     0.0231 C.ar    
   3 C3             0.8683    -0.8557    -0.0926 C.ar    
   4 N4            -1.4399    -0.4832     0.1513 N.ar    
   5 N5            -1.6667    -1.7463     0.1686 N.ar    
   6 C6            -0.7002    -2.6368     0.0602 C.ar    
   7 C7             0.6159    -2.2190    -0.0733 C.ar    
   8 C8            -1.0247    -4.1082     0.0874 C.3     
   9 C9            -1.8115    -4.4335     1.3586 C.3     
  10 C10           -2.1410    -5.9273     1.3862 C.3     
  11 C11           -2.9278    -6.2527     2.6574 C.3     
  12 C12           -3.2523    -7.7241     2.6845 C.2     
  13 N13           -2.5213    -8.6581     3.2049 N.2     
  14 N14           -2.9690    -9.8359     3.1257 N.2     
  15 C15           -4.1130   -10.0077     2.5350 C.2     
  16 S16           -4.6995    -8.4828     2.0200 S.3     
  17 N17           -4.7575   -11.2270     2.3553 N.am    
  18 C18           -4.1929   -12.3617     2.8139 C.2     
  19 C19           -4.8913   -13.6828     2.6192 C.3     
  20 O20           -3.1229   -12.3195     3.3832 O.2     
  21 N21           -4.0800   -14.7545     3.2017 N.pl3   
  22 C22           -1.0750     2.2250     0.0167 C.2     
  23 C23           -0.8601     3.7130     0.1198 C.3     
  24 O24           -2.2000     1.7786    -0.0599 O.2     
  25 C25           -2.1935     4.4152     0.1067 C.ar    
  26 C26           -2.8562     4.6617     1.2951 C.ar    
  27 C27           -2.7499     4.8170    -1.0920 C.ar    
  28 C28           -3.9776     5.4634    -1.1035 C.ar    
  29 C29           -4.6431     5.7045     0.0895 C.ar    
  30 C30           -4.0797     5.3052     1.2863 C.ar    
  31 C31           -4.4907   -15.6486     4.1254 C.2     
  32 C32           -3.4484   -16.4669     4.3993 C.2     
  33 C33           -2.3636   -16.0590     3.6163 C.2     
  34 N34           -2.7427   -15.0361     2.8939 N.2     
  35 O35           -4.5270     5.8601    -2.2815 O.3     
  36 C36           -5.7930     6.5198    -2.2173 C.3     
  37 F37           -5.6749     7.6819    -1.4474 F       
  38 F38           -6.2092     6.8569    -3.5098 F       
  39 F39           -6.7344     5.6663    -1.6320 F       
  40 H40            0.8842     1.7494    -0.0006 H       
  41 H41            1.8745    -0.4770    -0.1944 H       
  42 H42            1.4199    -2.9345    -0.1636 H       
  43 H43           -1.6240    -4.3643    -0.7864 H       
  44 H44           -0.0997    -4.6845     0.0751 H       
  45 H45           -1.2123    -4.1774     2.2323 H       
  46 H46           -2.7366    -3.8571     1.3708 H       
  47 H47           -2.7402    -6.1835     0.5124 H       
  48 H48           -1.2159    -6.5037     1.3739 H       
  49 H49           -2.3286    -5.9966     3.5311 H       
  50 H50           -3.8529    -5.6763     2.6696 H       
  51 H51           -5.6133   -11.2607     1.9000 H       
  52 H52           -5.8640   -13.6554     3.1104 H       
  53 H53           -5.0274   -13.8683     1.5537 H       
  54 H54           -0.3385     3.9413     1.0493 H       
  55 H55           -0.2620     4.0532    -0.7255 H       
  56 H56           -2.4174     4.3507     2.2316 H       
  57 H57           -2.2297     4.6284    -2.0195 H       
  58 H58           -5.5986     6.2077     0.0832 H       
  59 H59           -4.5974     5.4927     2.2154 H       
  60 H60           -5.4748   -15.7012     4.5671 H       
  61 H61           -3.4533   -17.2896     5.0990 H       
  62 H62           -1.3837   -16.5129     3.6063 H       
@<TRIPOS>BOND
   1    1    2 1
   2    1   22 am
   3    1   40 1
   4    2    3 ar
   5    2    4 ar
   6    3    7 ar
   7    3   41 1
   8    4    5 ar
   9    5    6 ar
  10    6    7 ar
  11    6    8 1
  12    7   42 1
  13    8    9 1
  14    8   43 1
  15    8   44 1
  16    9   10 1
  17    9   45 1
  18    9   46 1
  19   10   11 1
  20   10   47 1
  21   10   48 1
  22   11   12 1
  23   11   49 1
  24   11   50 1
  25   12   13 2
  26   12   16 1
  27   13   14 1
  28   14   15 2
  29   15   16 1
  30   15   17 1
  31   17   18 am
  32   17   51 1
  33   18   19 1
  34   18   20 2
  35   19   21 1
  36   19   52 1
  37   19   53 1
  38   21   31 1
  39   21   34 1
  40   22   23 1
  41   22   24 2
  42   23   25 1
  43   23   54 1
  44   23   55 1
  45   25   26 ar
  46   25   27 ar
  47   26   30 ar
  48   26   56 1
  49   27   28 ar
  50   27   57 1
  51   28   29 ar
  52   28   35 1
  53   29   30 ar
  54   29   58 1
  55   30   59 1
  56   31   32 2
  57   31   60 1
  58   32   33 1
  59   32   61 1
  60   33   34 2
  61   33   62 1
  62   35   36 1
  63   36   37 1
  64   36   38 1
  65   36   39 1

#	End of record

