#	Name: ASD03930071
#	Creating user name:	WinNT
#	Creation time:	15. 06. 2019 20:47

#	Modifying user name:	WinNT
#	Modification time:	15. 06. 2019 20:47

#	Program:	/corina/corina34_cracker 3.40 0067  02.08.2006

@<TRIPOS>MOLECULE
ASD03930071
  24   26    0    0    0
SMALL
NO_CHARGES


@<TRIPOS>ATOM
   1 C1            -0.0166     1.3753     0.0096 C.ar    
   2 C2             0.0021    -0.0041     0.0020 C.ar    
   3 C3            -1.1793    -0.7409    -0.0012 C.ar    
   4 C4            -2.3970    -0.1005     0.0038 C.ar    
   5 C5            -2.4152     1.3115     0.0347 C.ar    
   6 C6            -1.2442     2.0507     0.0308 C.ar    
   7 C7            -3.6812    -0.8779    -0.0540 C.3     
   8 N8            -4.7902    -0.2054     0.6285 N.am    
   9 S9            -5.2038     1.3465     0.1603 S.o2    
  10 C10           -3.6179     2.1580     0.0992 C.2     
  11 S11           -1.6354     3.7647     0.0436 S.3     
  12 C12           -3.3603     3.4442     0.0988 C.2     
  13 O13           -5.6860     1.2674    -1.1740 O.2     
  14 O14           -5.9314     1.9282     1.2334 O.2     
  15 C15           -5.5241    -0.8806     1.7017 C.3     
  16 F16           -1.1297    -2.0909    -0.0097 F       
  17 F17            1.1416     2.0708     0.0023 F       
  18 F18            1.1878    -0.6515    -0.0028 F       
  19 H19           -3.9526    -1.0296    -1.0987 H       
  20 H20           -3.5229    -1.8516     0.4097 H       
  21 H21           -4.1180     4.2131     0.1309 H       
  22 H22           -5.0487    -0.6648     2.6585 H       
  23 H23           -6.5536    -0.5229     1.7186 H       
  24 H24           -5.5161    -1.9563     1.5263 H       
@<TRIPOS>BOND
   1    1    2 ar
   2    1   17 1
   3    1    6 ar
   4    2    3 ar
   5    2   18 1
   6    3    4 ar
   7    3   16 1
   8    4    5 ar
   9    4    7 1
  10    5    6 ar
  11    5   10 1
  12    6   11 1
  13    7    8 1
  14    7   19 1
  15    7   20 1
  16    8    9 am
  17    8   15 1
  18    9   10 1
  19    9   13 2
  20    9   14 2
  21   10   12 2
  22   11   12 1
  23   12   21 1
  24   15   22 1
  25   15   23 1
  26   15   24 1

#	End of record

