#	Name: ASD01814793
#	Creating user name:	WinNT
#	Creation time:	15. 06. 2019 19:33

#	Modifying user name:	WinNT
#	Modification time:	15. 06. 2019 19:33

#	Program:	/corina/corina34_cracker 3.40 0067  02.08.2006

@<TRIPOS>MOLECULE
ASD01814793
  53   56    0    0    0
SMALL
NO_CHARGES


@<TRIPOS>ATOM
   1 C1             7.5203     1.3747     0.4016 C.2     
   2 C2             7.3634     0.3556     1.3460 C.2     
   3 C3             6.1085    -0.0869     1.6785 C.2     
   4 C4             4.9937     0.3944     0.9820 C.2     
   5 N5             5.1735     1.5292     0.2105 N.am    
   6 C6             6.4241     1.9616    -0.1217 C.2     
   7 C7             3.7482    -0.2279     0.9348 C.2     
   8 C8             2.6600     0.4376     0.3819 C.2     
   9 C9             2.8297     1.7004    -0.1857 C.2     
  10 C10            4.1241     2.2384    -0.2485 C.2     
  11 O11            4.2980     3.3516    -0.7184 O.2     
  12 C12            1.6760     2.4562    -0.7084 C.2     
  13 O13            1.6413     2.8248    -2.0155 O.3     
  14 C14            0.6661     2.7780     0.1028 C.2     
  15 C15            3.4639    -1.6106     1.4637 C.3     
  16 N16            3.5855    -2.5867     0.3727 N.3     
  17 C17            3.6945    -3.9533     0.8989 C.3     
  18 C18            3.9649    -4.9247    -0.2524 C.3     
  19 C19            2.8208    -4.8379    -1.2663 C.3     
  20 C20            2.6974    -3.3947    -1.7625 C.3     
  21 C21            2.4638    -2.4677    -0.5675 C.3     
  22 C22            3.1107    -5.7482    -2.4318 C.ar    
  23 N23            4.3290    -6.2235    -2.6001 N.ar    
  24 C24            4.6287    -7.0231    -3.6052 C.ar    
  25 C25            3.6665    -7.3930    -4.5254 C.ar    
  26 C26            2.3736    -6.9130    -4.3811 C.ar    
  27 C27            2.0950    -6.0797    -3.3088 C.ar    
  28 C28            1.5614    -5.2463    -0.6229 C.1     
  29 N29            0.5894    -5.5614    -0.1265 N.1     
  30 C30            6.0338    -1.0166     2.8651 C.3     
  31 H31            8.5051     1.6864     0.0905 H       
  32 H32            8.2256    -0.0904     1.8206 H       
  33 H33            6.5401     2.7832    -0.8139 H       
  34 H34            1.6874    -0.0339     0.3979 H       
  35 H35            0.7296     2.5570     1.1580 H       
  36 H36           -0.2146     3.2593    -0.2961 H       
  37 H37            4.1791    -1.8532     2.2496 H       
  38 H38            2.4529    -1.6436     1.8697 H       
  39 H39            4.5144    -4.0023     1.6155 H       
  40 H40            2.7628    -4.2273     1.3940 H       
  41 H41            4.9035    -4.6597    -0.7392 H       
  42 H42            4.0302    -5.9408     0.1366 H       
  43 H43            3.6160    -3.1056    -2.2731 H       
  44 H44            1.8572    -3.3177    -2.4526 H       
  45 H45            1.5379    -2.7485    -0.0656 H       
  46 H46            2.3897    -1.4375    -0.9160 H       
  47 H47            5.6381    -7.3926    -3.7106 H       
  48 H48            3.9183    -8.0475    -5.3467 H       
  49 H49            1.6011    -7.1850    -5.0851 H       
  50 H50            1.0989    -5.6877    -3.1653 H       
  51 H51            7.0191    -1.1001     3.3237 H       
  52 H52            5.3265    -0.6200     3.5934 H       
  53 H53            5.7020    -2.0010     2.5351 H       
@<TRIPOS>BOND
   1    1    2 1
   2    1    6 2
   3    1   31 1
   4    2    3 2
   5    2   32 1
   6    3    4 1
   7    3   30 1
   8    4    5 1
   9    4    7 2
  10    5    6 1
  11    5   10 am
  12    6   33 1
  13    7   15 1
  14    7    8 1
  15    8    9 2
  16    8   34 1
  17    9   10 1
  18    9   12 1
  19   10   11 2
  20   12   13 1
  21   12   14 2
  22   14   35 1
  23   14   36 1
  24   15   16 1
  25   15   37 1
  26   15   38 1
  27   16   17 1
  28   16   21 1
  29   17   18 1
  30   17   39 1
  31   17   40 1
  32   18   19 1
  33   18   41 1
  34   18   42 1
  35   19   20 1
  36   19   22 1
  37   19   28 1
  38   20   21 1
  39   20   43 1
  40   20   44 1
  41   21   45 1
  42   21   46 1
  43   22   23 ar
  44   22   27 ar
  45   23   24 ar
  46   24   25 ar
  47   24   47 1
  48   25   26 ar
  49   25   48 1
  50   26   27 ar
  51   26   49 1
  52   27   50 1
  53   28   29 3
  54   30   51 1
  55   30   52 1
  56   30   53 1

#	End of record

