#	Name: ASD08150418
#	Creating user name:	WinNT
#	Creation time:	15. 06. 2019 21:16

#	Modifying user name:	WinNT
#	Modification time:	15. 06. 2019 21:16

#	Program:	/corina/corina34_cracker 3.40 0067  02.08.2006

@<TRIPOS>MOLECULE
ASD08150418
  63   69    0    0    0
SMALL
NO_CHARGES


@<TRIPOS>ATOM
   1 N1            -0.2168     0.6968     2.2108 N.am    
   2 C2            -0.3907    -0.6266     2.0283 C.2     
   3 C3             0.7086    -1.5089     2.0368 C.2     
   4 C4             1.9651    -1.0329     2.2300 C.2     
   5 C5             2.1517     0.3588     2.4219 C.ar    
   6 C6             3.4336     0.9045     2.6259 C.ar    
   7 N7             3.6028     2.1888     2.8027 N.ar    
   8 C8             2.5780     3.0548     2.8001 C.ar    
   9 C9             1.2531     2.5943     2.6015 C.ar    
  10 C10            1.0357     1.2098     2.4082 C.ar    
  11 C11            0.1919     3.5048     2.6016 C.ar    
  12 C12            0.4491     4.8521     2.7966 C.ar    
  13 C13            1.7629     5.3005     2.9920 C.ar    
  14 C14            2.8054     4.4271     2.9944 C.ar    
  15 O15           -1.5142    -1.0671     1.8537 O.2     
  16 C16           -0.6707     5.8247     2.7981 C.ar    
  17 C17           -1.3251     1.5537     2.1927 C.ar    
  18 C18           -1.8726     1.9554     0.9808 C.ar    
  19 C19           -2.9646     2.7990     0.9628 C.ar    
  20 C20           -3.5164     3.2466     2.1568 C.ar    
  21 C21           -2.9689     2.8448     3.3684 C.ar    
  22 C22           -1.8798     1.9967     3.3862 C.ar    
  23 N23           -4.6223     4.1016     2.1386 N.3     
  24 C24           -5.8177     3.4277     2.6645 C.3     
  25 C25           -4.8657     4.6192     0.7849 C.3     
  26 C26           -6.0317     5.6099     0.8225 C.3     
  27 N27           -7.2270     4.9360     1.3483 N.3     
  28 C28           -6.9836     4.4184     2.7020 C.3     
  29 C29           -1.7377     5.6621     1.9167 C.ar    
  30 C30           -2.7795     6.5673     1.9192 C.ar    
  31 C31           -2.7686     7.6404     2.7970 C.ar    
  32 C32           -1.7035     7.8079     3.6811 C.ar    
  33 C33           -0.6604     6.9000     3.6853 C.ar    
  34 O34           -3.6607     8.6550     2.9933 O.3     
  35 C35           -3.3336     9.2114     4.2802 C.3     
  36 O36           -1.9302     8.9269     4.4297 O.3     
  37 C37           -3.5673     3.3301     4.6636 C.3     
  38 F38           -2.6648     3.1030     5.7082 F       
  39 F39           -3.8358     4.6998     4.5689 F       
  40 F40           -4.7566     2.6381     4.9160 F       
  41 H41            0.5506    -2.5671     1.8895 H       
  42 H42            2.8103    -1.7052     2.2377 H       
  43 H43            4.2927     0.2501     2.6369 H       
  44 H44           -0.8205     3.1604     2.4504 H       
  45 H45            1.9498     6.3535     3.1421 H       
  46 H46            3.8112     4.7898     3.1472 H       
  47 H47           -1.4434     1.6078     0.0527 H       
  48 H48           -3.3900     3.1116     0.0206 H       
  49 H49           -1.4568     1.6807     4.3283 H       
  50 H50           -6.0750     2.5876     2.0194 H       
  51 H51           -5.6166     3.0644     3.6723 H       
  52 H52           -3.9706     5.1246     0.4224 H       
  53 H53           -5.1122     3.7926     0.1185 H       
  54 H54           -5.7744     6.4500     1.4676 H       
  55 H55           -6.2328     5.9732    -0.1853 H       
  56 H56           -8.0252     5.5531     1.3353 H       
  57 H57           -7.8788     3.9131     3.0645 H       
  58 H58           -6.7372     5.2450     3.3685 H       
  59 H59           -1.7492     4.8276     1.2313 H       
  60 H60           -3.6053     6.4397     1.2350 H       
  61 H61            0.1651     7.0283     4.3698 H       
  62 H62           -3.5092    10.2872     4.2881 H       
  63 H63           -3.9093     8.7227     5.0662 H       
@<TRIPOS>BOND
   1    1    2 am
   2    1   10 1
   3    1   17 1
   4    2    3 1
   5    2   15 2
   6    3    4 2
   7    3   41 1
   8    4    5 1
   9    4   42 1
  10    5    6 ar
  11    5   10 ar
  12    6    7 ar
  13    6   43 1
  14    7    8 ar
  15    8    9 ar
  16    8   14 ar
  17    9   10 ar
  18    9   11 ar
  19   11   12 ar
  20   11   44 1
  21   12   13 ar
  22   12   16 1
  23   13   14 ar
  24   13   45 1
  25   14   46 1
  26   16   29 ar
  27   16   33 ar
  28   17   18 ar
  29   17   22 ar
  30   18   19 ar
  31   18   47 1
  32   19   20 ar
  33   19   48 1
  34   20   21 ar
  35   20   23 1
  36   21   22 ar
  37   21   37 1
  38   22   49 1
  39   23   24 1
  40   23   25 1
  41   24   28 1
  42   24   50 1
  43   24   51 1
  44   25   26 1
  45   25   52 1
  46   25   53 1
  47   26   27 1
  48   26   54 1
  49   26   55 1
  50   27   28 1
  51   27   56 1
  52   28   57 1
  53   28   58 1
  54   29   30 ar
  55   29   59 1
  56   30   31 ar
  57   30   60 1
  58   31   32 ar
  59   31   34 1
  60   32   33 ar
  61   32   36 1
  62   33   61 1
  63   34   35 1
  64   35   36 1
  65   35   62 1
  66   35   63 1
  67   37   38 1
  68   37   39 1
  69   37   40 1

#	End of record

