#	Name: ASD04591119
#	Creating user name:	WinNT
#	Creation time:	15. 06. 2019 20:52

#	Modifying user name:	WinNT
#	Modification time:	15. 06. 2019 20:52

#	Program:	/corina/corina34_cracker 3.40 0067  02.08.2006

@<TRIPOS>MOLECULE
ASD04591119
  75   80    0    0    0
SMALL
NO_CHARGES


@<TRIPOS>ATOM
   1 N1            -2.2842    -2.6400     0.3267 N.ar    
   2 C2            -1.0904    -2.0629     0.3749 C.ar    
   3 N3             0.0339    -2.7565     0.3000 N.ar    
   4 C4             0.0058    -4.0797     0.1718 C.ar    
   5 C5            -1.2472    -4.7229     0.1180 C.ar    
   6 C6            -2.4022    -3.9515     0.2002 C.ar    
   7 N7             0.9878    -5.0340     0.0726 N.pl3   
   8 C8             0.4274    -6.2942    -0.0458 C.ar    
   9 C9            -0.9722    -6.1585    -0.0231 C.ar    
  10 C10            0.9671    -7.5675    -0.1730 C.ar    
  11 N11            0.1826    -8.6214    -0.2698 N.ar    
  12 C12           -1.1354    -8.5282    -0.2518 C.ar    
  13 C13           -1.7591    -7.3047    -0.1293 C.ar    
  14 N14           -1.0186    -0.6861     0.5080 N.pl3   
  15 C15           -2.1846     0.0789     0.4810 C.ar    
  16 C16            2.4263    -4.7575     0.0891 C.3     
  17 C17            2.8289    -3.9834    -1.1783 C.3     
  18 C18            3.4099    -2.6349    -0.7053 C.3     
  19 C19            3.8804    -2.9116     0.7443 C.3     
  20 C20            2.7767    -3.8523     1.2882 C.3     
  21 N21           -3.3615    -0.5241     0.4365 N.ar    
  22 C22           -4.4902     0.1591     0.4096 C.ar    
  23 C23           -4.4802     1.5457     0.4269 C.ar    
  24 C24           -3.2587     2.2160     0.4737 C.ar    
  25 C25           -2.0970     1.4665     0.5069 C.ar    
  26 N26           -5.6817     2.2635     0.3973 N.3     
  27 C27           -6.8360     1.3561     0.3493 C.3     
  28 C28           -8.1266     2.1682     0.5007 C.3     
  29 C29           -6.9457     4.0989    -0.6180 C.3     
  30 C30           -5.7016     3.2107    -0.7253 C.3     
  31 C31            2.4634    -7.7451    -0.2009 C.3     
  32 N32           -8.1302     3.2331    -0.5137 N.am    
  33 O33           -9.1752     4.3918    -2.2484 O.3     
  34 C34          -10.3519     4.5254    -3.0886 C.3     
  35 C35          -11.5749     4.8046    -2.2126 C.3     
  36 C36          -10.1507     5.6838    -4.0676 C.3     
  37 C37          -10.5700     3.2286    -3.8706 C.3     
  38 C38           -9.1909     3.4113    -1.3259 C.2     
  39 O39          -10.1613     2.6870    -1.2256 O.2     
  40 H40           -3.3770    -4.4149     0.1623 H       
  41 H41           -1.7331    -9.4239    -0.3349 H       
  42 H42           -2.8368    -7.2355    -0.1149 H       
  43 H43           -0.1574    -0.2540     0.6199 H       
  44 H44            2.9851    -5.6914     0.1495 H       
  45 H45            3.5837    -4.5413    -1.7326 H       
  46 H46            1.9539    -3.8135    -1.8058 H       
  47 H47            4.2532    -2.3423    -1.3308 H       
  48 H48            2.6401    -1.8632    -0.7157 H       
  49 H49            4.8494    -3.4107     0.7472 H       
  50 H50            3.9190    -1.9874     1.3209 H       
  51 H51            1.9047    -3.2773     1.5997 H       
  52 H52            3.1580    -4.4483     2.1174 H       
  53 H53           -5.4323    -0.3676     0.3735 H       
  54 H54           -3.2207     3.2952     0.4881 H       
  55 H55           -1.1334     1.9528     0.5438 H       
  56 H56           -6.8465     0.8311    -0.6059 H       
  57 H57           -6.7640     0.6327     1.1616 H       
  58 H58           -8.9883     1.5175     0.3515 H       
  59 H59           -8.1662     2.6105     1.4961 H       
  60 H60           -6.8718     4.7268     0.2699 H       
  61 H61           -7.0267     4.7246    -1.5068 H       
  62 H62           -4.8069     3.8325    -0.6924 H       
  63 H63           -5.7279     2.6599    -1.6655 H       
  64 H64            2.8476    -7.7512     0.8191 H       
  65 H65            2.7081    -8.6895    -0.6870 H       
  66 H66            2.9166    -6.9231    -0.7550 H       
  67 H67          -11.4195     5.7284    -1.6555 H       
  68 H68          -12.4582     4.9048    -2.8433 H       
  69 H69          -11.7182     3.9793    -1.5151 H       
  70 H70           -9.2794     5.4849    -4.6917 H       
  71 H71          -11.0340     5.7840    -4.6983 H       
  72 H72           -9.9953     6.6076    -3.5105 H       
  73 H73          -10.7133     2.4034    -3.1731 H       
  74 H74          -11.4533     3.3289    -4.5013 H       
  75 H75           -9.6987     3.0297    -4.4947 H       
@<TRIPOS>BOND
   1    1    2 ar
   2    1    6 ar
   3    2    3 ar
   4    2   14 1
   5    3    4 ar
   6    4    5 ar
   7    4    7 1
   8    5    6 ar
   9    5    9 1
  10    6   40 1
  11    7    8 1
  12    7   16 1
  13    8    9 ar
  14    8   10 ar
  15    9   13 ar
  16   10   11 ar
  17   10   31 1
  18   11   12 ar
  19   12   13 ar
  20   12   41 1
  21   13   42 1
  22   14   15 1
  23   14   43 1
  24   15   21 ar
  25   15   25 ar
  26   16   17 1
  27   16   20 1
  28   16   44 1
  29   17   18 1
  30   17   45 1
  31   17   46 1
  32   18   19 1
  33   18   47 1
  34   18   48 1
  35   19   20 1
  36   19   49 1
  37   19   50 1
  38   20   51 1
  39   20   52 1
  40   21   22 ar
  41   22   23 ar
  42   22   53 1
  43   23   24 ar
  44   23   26 1
  45   24   25 ar
  46   24   54 1
  47   25   55 1
  48   26   27 1
  49   26   30 1
  50   27   28 1
  51   27   56 1
  52   27   57 1
  53   28   32 1
  54   28   58 1
  55   28   59 1
  56   29   30 1
  57   29   32 1
  58   29   60 1
  59   29   61 1
  60   30   62 1
  61   30   63 1
  62   31   64 1
  63   31   65 1
  64   31   66 1
  65   32   38 am
  66   33   34 1
  67   33   38 1
  68   34   35 1
  69   34   36 1
  70   34   37 1
  71   35   67 1
  72   35   68 1
  73   35   69 1
  74   36   70 1
  75   36   71 1
  76   36   72 1
  77   37   73 1
  78   37   74 1
  79   37   75 1
  80   38   39 2

#	End of record

