#	Name: ASD03090006
#	Creating user name:	WinNT
#	Creation time:	15. 06. 2019 20:28

#	Modifying user name:	WinNT
#	Modification time:	15. 06. 2019 20:28

#	Program:	/corina/corina34_cracker 3.40 0067  02.08.2006

@<TRIPOS>MOLECULE
ASD03090006
  36   37    0    0    0
SMALL
NO_CHARGES


@<TRIPOS>ATOM
   1 C1             1.1675    -2.0230    -0.2717 C.3     
   2 C2             2.2732    -3.0178     0.1514 C.3     
   3 C3             3.5485    -2.3005    -0.3440 C.3     
   4 N4             3.2075    -0.8734    -0.3767 N.am    
   5 C5             1.8765    -0.6885    -0.3429 C.2     
   6 O6             1.3243     0.3910    -0.3668 O.2     
   7 C7             4.1913     0.2103    -0.4384 C.3     
   8 C8             4.4866     0.5393    -1.8791 C.2     
   9 N9             5.3691     1.5122    -2.1810 N.am    
  10 C10            5.7288     1.7416    -3.5136 C.ar    
  11 C11            7.0577     1.6377    -3.9034 C.ar    
  12 C12            7.4094     1.8643    -5.2197 C.ar    
  13 C13            6.4401     2.1947    -6.1489 C.ar    
  14 C14            5.1160     2.2990    -5.7639 C.ar    
  15 C15            4.7570     2.0681    -4.4504 C.ar    
  16 C16            3.3138     2.1819    -4.0317 C.3     
  17 C17            8.1148     1.2785    -2.8913 C.3     
  18 O18            3.9300    -0.0714    -2.7670 O.2     
  19 H19            0.7643    -2.2933    -1.2476 H       
  20 H20            0.3742    -1.9941     0.4753 H       
  21 H21            2.2917    -3.1431     1.2341 H       
  22 H22            2.1463    -3.9779    -0.3488 H       
  23 H23            4.3726    -2.4756     0.3477 H       
  24 H24            3.8130    -2.6482    -1.3426 H       
  25 H25            3.7916     1.0928     0.0612 H       
  26 H26            5.1094    -0.1037     0.0581 H       
  27 H27            5.7549     2.0533    -1.4745 H       
  28 H28            8.4427     1.7836    -5.5235 H       
  29 H29            6.7178     2.3721    -7.1774 H       
  30 H30            4.3613     2.5573    -6.4920 H       
  31 H31            2.7936     1.2528    -4.2646 H       
  32 H32            3.2603     2.3693    -2.9593 H       
  33 H33            2.8437     3.0059    -4.5684 H       
  34 H34            8.2306     0.1953    -2.8556 H       
  35 H35            9.0620     1.7359    -3.1772 H       
  36 H36            7.8165     1.6445    -1.9089 H       
@<TRIPOS>BOND
   1    1    2 1
   2    1    5 1
   3    1   19 1
   4    1   20 1
   5    2    3 1
   6    2   21 1
   7    2   22 1
   8    3    4 1
   9    3   23 1
  10    3   24 1
  11    4    5 am
  12    4    7 1
  13    5    6 2
  14    7    8 1
  15    7   25 1
  16    7   26 1
  17    8    9 am
  18    8   18 2
  19    9   10 1
  20    9   27 1
  21   10   11 ar
  22   10   15 ar
  23   11   12 ar
  24   11   17 1
  25   12   13 ar
  26   12   28 1
  27   13   14 ar
  28   13   29 1
  29   14   15 ar
  30   14   30 1
  31   15   16 1
  32   16   31 1
  33   16   32 1
  34   16   33 1
  35   17   34 1
  36   17   35 1
  37   17   36 1

#	End of record

