#	Name: ASD01916725
#	Creating user name:	WinNT
#	Creation time:	15. 06. 2019 20:07

#	Modifying user name:	WinNT
#	Modification time:	15. 06. 2019 20:07

#	Program:	/corina/corina34_cracker 3.40 0067  02.08.2006

@<TRIPOS>MOLECULE
ASD01916725
  31   33    0    0    0
SMALL
NO_CHARGES


@<TRIPOS>ATOM
   1 O1            -0.0161     1.3383     0.0094 O.3     
   2 C2             0.0021    -0.0041     0.0020 C.2     
   3 N3             1.2264    -0.4376    -0.0120 N.2     
   4 C4             2.0698     0.6303    -0.0143 C.ar    
   5 C5             1.2620     1.7768    -0.0004 C.ar    
   6 C6             1.8483     3.0346     0.0000 C.ar    
   7 C7             3.2235     3.1527    -0.0131 C.ar    
   8 C8             4.0265     2.0222    -0.0269 C.ar    
   9 C9             3.4609     0.7643    -0.0269 C.ar    
  10 C10           -1.2226    -0.8822     0.0095 C.3     
  11 C11           -1.6228    -1.1871     1.4544 C.3     
  12 C12           -2.8190    -2.0448     1.4616 C.1     
  13 C13           -3.7731    -2.7289     1.4674 C.1     
  14 C14           -4.9369    -3.5634     1.4745 C.ar    
  15 C15           -5.4875    -3.9733     2.6893 C.ar    
  16 C16           -6.6119    -4.7793     2.6794 C.ar    
  17 C17           -7.1508    -5.1504     1.4551 C.ar    
  18 C18           -6.5543    -4.7081     0.2888 C.ar    
  19 N19           -5.4870    -3.9367     0.3249 N.ar    
  20 F20            4.2481    -0.3335    -0.0400 F       
  21 Cl21           0.8537     4.4574     0.0166 Cl      
  22 H22            3.6774     4.1327    -0.0131 H       
  23 H23            5.1013     2.1274    -0.0371 H       
  24 H24           -2.0415    -0.3679    -0.4935 H       
  25 H25           -1.0045    -1.8144    -0.5116 H       
  26 H26           -0.8039    -1.7014     1.9574 H       
  27 H27           -1.8410    -0.2549     1.9754 H       
  28 H28           -5.0421    -3.6660     3.6240 H       
  29 H29           -7.0603    -5.1127     3.6036 H       
  30 H30           -8.0279    -5.7791     1.4140 H       
  31 H31           -6.9714    -4.9958    -0.6649 H       
@<TRIPOS>BOND
   1    1    2 1
   2    1    5 1
   3    2    3 2
   4    2   10 1
   5    3    4 1
   6    4    5 ar
   7    4    9 ar
   8    5    6 ar
   9    6    7 ar
  10    6   21 1
  11    7    8 ar
  12    7   22 1
  13    8    9 ar
  14    8   23 1
  15    9   20 1
  16   10   11 1
  17   10   24 1
  18   10   25 1
  19   11   12 1
  20   11   26 1
  21   11   27 1
  22   12   13 3
  23   13   14 1
  24   14   15 ar
  25   14   19 ar
  26   15   16 ar
  27   15   28 1
  28   16   17 ar
  29   16   29 1
  30   17   18 ar
  31   17   30 1
  32   18   19 ar
  33   18   31 1

#	End of record

