#	Name: ASD01813313
#	Creating user name:	WinNT
#	Creation time:	15. 06. 2019 19:30

#	Modifying user name:	WinNT
#	Modification time:	15. 06. 2019 19:30

#	Program:	/corina/corina34_cracker 3.40 0067  02.08.2006

@<TRIPOS>MOLECULE
ASD01813313
  46   49    0    0    0
SMALL
NO_CHARGES


@<TRIPOS>ATOM
   1 C1             0.0588     1.4193     0.1359 C.2     
   2 C2             0.0716     0.0179     0.1330 C.2     
   3 C3             1.2640    -0.6425     0.0756 C.2     
   4 C4             2.4591     0.0937     0.0203 C.2     
   5 N5             2.4172     1.4615     0.0249 N.am    
   6 C6             1.2196     2.1107     0.0821 C.2     
   7 C7             3.6858    -0.5827    -0.0386 C.2     
   8 C8             4.8527     0.1229    -0.0922 C.2     
   9 C9             4.8057     1.5294    -0.0878 C.2     
  10 C10            3.5566     2.1804    -0.0275 C.2     
  11 O11            3.5065     3.3988    -0.0237 O.2     
  12 C12            6.0436     2.3100    -0.1442 C.2     
  13 O13            5.9917     3.6580    -0.1397 O.3     
  14 O14            7.1185     1.7428    -0.1950 O.2     
  15 C15            3.7158    -2.0894    -0.0423 C.3     
  16 C16            3.7837    -2.5946    -1.4848 C.3     
  17 N17            3.9397    -4.0553    -1.4853 N.3     
  18 C18            2.7369    -4.7116    -0.9691 C.3     
  19 C19            2.9680    -6.2279    -0.9666 C.3     
  20 C20            4.0305    -6.5407     0.0896 C.3     
  21 C21            5.1944    -5.5945    -0.0662 C.ar    
  22 C22            5.1013    -4.4338    -0.8138 C.ar    
  23 C23            6.3854    -5.9140     0.5669 C.ar    
  24 C24            7.4805    -5.0801     0.4611 C.ar    
  25 C25            7.3915    -3.9163    -0.2810 C.ar    
  26 C26            6.2115    -3.5934    -0.9153 C.ar    
  27 H27           -0.8816     1.9488     0.1766 H       
  28 H28           -0.8552    -0.5349     0.1763 H       
  29 H29            1.2888    -1.7222     0.0731 H       
  30 H30            1.1979     3.1905     0.0852 H       
  31 H31            5.8010    -0.3920    -0.1370 H       
  32 H32            6.8349     4.1299    -0.1782 H       
  33 H33            4.5915    -2.4367     0.5060 H       
  34 H34            2.8133    -2.4719     0.4346 H       
  35 H35            2.8651    -2.3272    -2.0071 H       
  36 H36            4.6349    -2.1381    -1.9900 H       
  37 H37            2.5413    -4.3698     0.0473 H       
  38 H38            1.8868    -4.4723    -1.6080 H       
  39 H39            2.0393    -6.7420    -0.7188 H       
  40 H40            3.3177    -6.5492    -1.9477 H       
  41 H41            3.5990    -6.4244     1.0838 H       
  42 H42            4.3772    -7.5663    -0.0371 H       
  43 H43            6.4572    -6.8219     1.1474 H       
  44 H44            8.4051    -5.3358     0.9574 H       
  45 H45            8.2463    -3.2614    -0.3637 H       
  46 H46            6.1449    -2.6841    -1.4942 H       
@<TRIPOS>BOND
   1    1    2 1
   2    1    6 2
   3    1   27 1
   4    2    3 2
   5    2   28 1
   6    3    4 1
   7    3   29 1
   8    4    5 1
   9    4    7 2
  10    5    6 1
  11    5   10 am
  12    6   30 1
  13    7    8 1
  14    7   15 1
  15    8    9 2
  16    8   31 1
  17    9   10 1
  18    9   12 1
  19   10   11 2
  20   12   13 1
  21   12   14 2
  22   13   32 1
  23   15   16 1
  24   15   33 1
  25   15   34 1
  26   16   17 1
  27   16   35 1
  28   16   36 1
  29   17   18 1
  30   17   22 1
  31   18   19 1
  32   18   37 1
  33   18   38 1
  34   19   20 1
  35   19   39 1
  36   19   40 1
  37   20   21 1
  38   20   41 1
  39   20   42 1
  40   21   22 ar
  41   21   23 ar
  42   22   26 ar
  43   23   24 ar
  44   23   43 1
  45   24   25 ar
  46   24   44 1
  47   25   26 ar
  48   25   45 1
  49   26   46 1

#	End of record

