#	Name: ASD00170032
#	Creating user name:	WinNT
#	Creation time:	15. 06. 2019 18:31

#	Modifying user name:	WinNT
#	Modification time:	15. 06. 2019 18:31

#	Program:	/corina/corina34_cracker 3.40 0067  02.08.2006

@<TRIPOS>MOLECULE
ASD00170032
  36   39    0    0    0
SMALL
NO_CHARGES


@<TRIPOS>ATOM
   1 C1            -0.0177     1.4113    -0.0055 C.ar    
   2 C2             0.0014    -0.0045    -0.0145 C.ar    
   3 C3            -1.2140    -0.7123     0.0041 C.ar    
   4 C4            -2.4037    -0.0483     0.0302 C.ar    
   5 C5            -2.4679     1.3378     0.0399 C.ar    
   6 C6            -1.3066     2.0996     0.0180 C.ar    
   7 C7             1.1898     2.1197    -0.0250 C.ar    
   8 C8             2.3702     1.4383    -0.0523 C.ar    
   9 C9             2.3922     0.0458    -0.0616 C.ar    
  10 C10            1.2365    -0.6740    -0.0423 C.ar    
  11 C11           -1.3728     3.5729     0.0282 C.2     
  12 C12           -2.6685     4.2480    -0.0624 C.2     
  13 O13           -0.3492     4.2281     0.1120 O.2     
  14 C14           -3.5200     4.5135     1.0951 C.2     
  15 C15           -4.6458     5.1375     0.7651 C.2     
  16 S16           -4.7159     5.4276    -0.9728 S.3     
  17 C17           -3.2021     4.6994    -1.2387 C.2     
  18 N18           -2.5978     4.5740    -2.4737 N.pl3   
  19 C19           -3.4735     4.2688     2.6009 C.3     
  20 C20           -4.5269     5.2273     3.1912 C.3     
  21 C21           -5.4969     5.3914     2.0038 C.3     
  22 Cl22          -1.1983    -2.4482    -0.0068 Cl      
  23 H23           -3.3220    -0.6166     0.0433 H       
  24 H24           -3.4296     1.8288     0.0603 H       
  25 H25            1.1861     3.1996    -0.0188 H       
  26 H26            3.3010     1.9858    -0.0674 H       
  27 H27            3.3403    -0.4710    -0.0841 H       
  28 H28            1.2689    -1.7535    -0.0503 H       
  29 H29           -3.0707     4.8478    -3.2751 H       
  30 H30           -1.7002     4.2122    -2.5399 H       
  31 H31           -3.7342     3.2344     2.8251 H       
  32 H32           -2.4842     4.5047     2.9929 H       
  33 H33           -5.0295     4.7763     4.0468 H       
  34 H34           -4.0772     6.1823     3.4631 H       
  35 H35           -5.9039     6.4023     1.9836 H       
  36 H36           -6.3016     4.6590     2.0677 H       
@<TRIPOS>BOND
   1    1    2 ar
   2    1    7 ar
   3    1    6 ar
   4    2    3 ar
   5    2   10 ar
   6    3    4 ar
   7    3   22 1
   8    4    5 ar
   9    4   23 1
  10    5    6 ar
  11    5   24 1
  12    6   11 1
  13    7    8 ar
  14    7   25 1
  15    8    9 ar
  16    8   26 1
  17    9   10 ar
  18    9   27 1
  19   10   28 1
  20   11   12 1
  21   11   13 2
  22   12   14 1
  23   12   17 2
  24   14   15 2
  25   14   19 1
  26   15   16 1
  27   15   21 1
  28   16   17 1
  29   17   18 1
  30   18   29 1
  31   18   30 1
  32   19   20 1
  33   19   31 1
  34   19   32 1
  35   20   21 1
  36   20   33 1
  37   20   34 1
  38   21   35 1
  39   21   36 1

#	End of record

