#	Name: ASD09116480
#	Creating user name:	WinNT
#	Creation time:	15. 06. 2019 21:21

#	Modifying user name:	WinNT
#	Modification time:	15. 06. 2019 21:21

#	Program:	/corina/corina34_cracker 3.40 0067  02.08.2006

@<TRIPOS>MOLECULE
ASD09116480
  81   86    0    0    0
SMALL
NO_CHARGES


@<TRIPOS>ATOM
   1 N1            -1.8368     5.1994     0.9619 N.2     
   2 N2            -2.0927     6.3682     1.6969 N.pl3   
   3 C3            -0.5466     5.1691     0.7281 C.2     
   4 N4             0.0211     6.2510     1.2739 N.2     
   5 C5            -0.8990     6.9848     1.8624 C.2     
   6 N6            -0.6845     8.1749     2.5314 N.pl3   
   7 C7            -3.3328     6.8077     2.1638 C.ar    
   8 N8             0.1256     4.1696     0.0243 N.pl3   
   9 C9             1.4886     4.3058    -0.2522 C.ar    
  10 C10            2.2868     3.1770    -0.3903 C.ar    
  11 C11            2.0467     5.5705    -0.3952 C.ar    
  12 C12            3.3962     5.6935    -0.6697 C.ar    
  13 C13            4.1823     4.5776    -0.8001 C.ar    
  14 C14            3.6339     3.3134    -0.6642 C.ar    
  15 N15           -3.3982     7.6079     3.2174 N.ar    
  16 N16           -4.5143     8.0328     3.6931 N.ar    
  17 C17           -5.6734     7.6912     3.1534 C.ar    
  18 C18           -5.7014     6.8669     2.0249 C.ar    
  19 C19           -4.5047     6.4082     1.5163 C.ar    
  20 C20           -6.9628     8.1352     3.7318 C.ar    
  21 C21           -7.9615     7.1873     3.9605 C.ar    
  22 C22           -7.6843     5.7382     3.6677 C.3     
  23 C23           -7.7480     5.4507     2.1701 C.3     
  24 C24           -7.0148     6.5315     1.3802 C.3     
  25 C25           -7.1880     9.4718     4.0420 C.ar    
  26 C26           -8.4099     9.8572     4.5588 C.ar    
  27 C27           -9.4041     8.9181     4.7645 C.ar    
  28 C28           -9.1810     7.5852     4.4649 C.ar    
  29 C29            4.0017     7.0731    -0.8270 C.3     
  30 C30            4.8956     7.3512     0.3839 C.3     
  31 C31            6.2878     6.7910     0.1696 C.3     
  32 C32            6.3569     5.2769     0.1422 C.3     
  33 C33            5.6601     4.7198    -1.1012 C.3     
  34 O34            4.7835     7.1210    -2.0222 O.3     
  35 C35            4.9899     8.8625     0.6027 C.3     
  36 C36            5.7785     9.1442     1.8832 C.3     
  37 N37            5.8691    10.5953     2.0932 N.3     
  38 C38            6.4084    10.9018     3.4249 C.3     
  39 C39            5.3262    10.6649     4.4802 C.3     
  40 C40            6.6732    11.2304     1.0406 C.3     
  41 C41            6.4230    12.7398     1.0485 C.3     
  42 H42            0.2120     8.5393     2.5977 H       
  43 H43           -1.4305     8.6458     2.9346 H       
  44 H44           -0.3531     3.3801    -0.2732 H       
  45 H45            1.8543     2.1932    -0.2832 H       
  46 H46            1.4304     6.4514    -0.2929 H       
  47 H47            4.2577     2.4378    -0.7675 H       
  48 H48           -4.4747     5.7578     0.6546 H       
  49 H49           -6.6913     5.4833     4.0378 H       
  50 H50           -8.4236     5.1230     4.1806 H       
  51 H51           -7.2855     4.4841     1.9703 H       
  52 H52           -8.7909     5.4208     1.8545 H       
  53 H53           -7.6335     7.4279     1.3398 H       
  54 H54           -6.8354     6.1747     0.3660 H       
  55 H55           -6.4116    10.2048     3.8801 H       
  56 H56           -8.5889    10.8939     4.8031 H       
  57 H57          -10.3603     9.2265     5.1608 H       
  58 H58           -9.9620     6.8571     4.6271 H       
  59 H59            3.2076     7.8183    -0.8751 H       
  60 H60            4.4556     6.8889     1.2676 H       
  61 H61            6.6718     7.1718    -0.7768 H       
  62 H62            6.9329     7.1521     0.9706 H       
  63 H63            7.4016     4.9661     0.1368 H       
  64 H64            5.8706     4.8800     1.0333 H       
  65 H65            6.0787     3.7445    -1.3497 H       
  66 H66            5.7992     5.4053    -1.9371 H       
  67 H67            4.2816     6.9377    -2.8282 H       
  68 H68            5.4981     9.3214    -0.2454 H       
  69 H69            3.9871     9.2796     0.6944 H       
  70 H70            5.2703     8.6853     2.7313 H       
  71 H71            6.7814     8.7271     1.7914 H       
  72 H72            7.2622    10.2557     3.6286 H       
  73 H73            6.7255    11.9441     3.4573 H       
  74 H74            5.6938    10.9840     5.4555 H       
  75 H75            4.4356    11.2379     4.2223 H       
  76 H76            5.0784     9.6040     4.5147 H       
  77 H77            7.7301    11.0364     1.2239 H       
  78 H78            6.3914    10.8204     0.0708 H       
  79 H79            5.3699    12.9345     0.8455 H       
  80 H80            6.6861    13.1466     2.0249 H       
  81 H81            7.0347    13.2135     0.2806 H       
@<TRIPOS>BOND
   1    1    2 1
   2    1    3 2
   3    2    7 1
   4    2    5 1
   5    3    4 1
   6    3    8 1
   7    4    5 2
   8    5    6 1
   9    6   42 1
  10    6   43 1
  11    7   15 ar
  12    7   19 ar
  13    8    9 1
  14    8   44 1
  15    9   10 ar
  16    9   11 ar
  17   10   14 ar
  18   10   45 1
  19   11   12 ar
  20   11   46 1
  21   12   13 ar
  22   12   29 1
  23   13   14 ar
  24   13   33 1
  25   14   47 1
  26   15   16 ar
  27   16   17 ar
  28   17   18 ar
  29   17   20 1
  30   18   19 ar
  31   18   24 1
  32   19   48 1
  33   20   21 ar
  34   20   25 ar
  35   21   22 1
  36   21   28 ar
  37   22   23 1
  38   22   49 1
  39   22   50 1
  40   23   24 1
  41   23   51 1
  42   23   52 1
  43   24   53 1
  44   24   54 1
  45   25   26 ar
  46   25   55 1
  47   26   27 ar
  48   26   56 1
  49   27   28 ar
  50   27   57 1
  51   28   58 1
  52   29   30 1
  53   29   34 1
  54   29   59 1
  55   30   31 1
  56   30   35 1
  57   30   60 1
  58   31   32 1
  59   31   61 1
  60   31   62 1
  61   32   33 1
  62   32   63 1
  63   32   64 1
  64   33   65 1
  65   33   66 1
  66   34   67 1
  67   35   36 1
  68   35   68 1
  69   35   69 1
  70   36   37 1
  71   36   70 1
  72   36   71 1
  73   37   38 1
  74   37   40 1
  75   38   39 1
  76   38   72 1
  77   38   73 1
  78   39   74 1
  79   39   75 1
  80   39   76 1
  81   40   41 1
  82   40   77 1
  83   40   78 1
  84   41   79 1
  85   41   80 1
  86   41   81 1

#	End of record

