#	Name: ASD01000158
#	Creating user name:	WinNT
#	Creation time:	15. 06. 2019 18:54

#	Modifying user name:	WinNT
#	Modification time:	15. 06. 2019 18:54

#	Program:	/corina/corina34_cracker 3.40 0067  02.08.2006

@<TRIPOS>MOLECULE
ASD01000158
  54   57    0    0    0
SMALL
NO_CHARGES


@<TRIPOS>ATOM
   1 C1            -0.0685     1.3923    -0.3196 C.ar    
   2 C2            -2.4910    -0.5711     0.0441 C.ar    
   3 C3            -0.0262    -0.0437     0.0314 C.3     
   4 C4             0.2925     4.0233    -1.1365 C.ar    
   5 C5            -0.9518     3.5036    -0.8933 C.ar    
   6 C6            -1.1352     2.1749    -0.4436 C.ar    
   7 C7             1.2198     1.9237    -0.5443 C.ar    
   8 C8             1.4043     3.2235    -0.9424 C.ar    
   9 C9            -3.4873    -1.5032     0.4225 C.ar    
  10 C10           -3.1740    -2.7421     0.9161 C.ar    
  11 C11           -1.8440    -3.0974     1.0502 C.ar    
  12 C12           -0.8806    -2.1828     0.7057 C.ar    
  13 C13           -1.2176    -0.9004     0.2233 C.ar    
  14 C14            0.8110    -0.7139    -1.0274 C.ar    
  15 C15            1.9056    -1.4759    -0.6634 C.ar    
  16 C16            2.6735    -2.0905    -1.6345 C.ar    
  17 C17            2.3467    -1.9435    -2.9698 C.ar    
  18 C18            1.2519    -1.1825    -3.3337 C.ar    
  19 C19            0.4812    -0.5713    -2.3620 C.ar    
  20 S20            0.9396    -0.1660     1.5620 S.3     
  21 C21           -0.0925     0.7133     2.7671 C.3     
  22 C22            0.6267     0.7600     4.1167 C.3     
  23 C23           -0.2307     1.4905     5.1179 C.2     
  24 N24            0.8716    -0.6095     4.5886 N.3     
  25 O25           -0.2592     2.8324     5.1245 O.3     
  26 O26           -0.8925     0.8682     5.9145 O.2     
  27 C27           -2.5965     1.9560    -0.1125 C.3     
  28 C28           -3.1523     0.6437    -0.5687 C.3     
  29 C29           -0.7156     0.2543    -2.7584 C.3     
  30 H30            0.4037     5.0429    -1.4749 H       
  31 H31           -1.8193     4.1276    -1.0498 H       
  32 H32            2.0826     1.2907    -0.3988 H       
  33 H33            2.3984     3.6148    -1.1008 H       
  34 H34           -4.5267    -1.2287     0.3192 H       
  35 H35           -3.9555    -3.4325     1.1972 H       
  36 H36           -1.5692    -4.0746     1.4189 H       
  37 H37            0.1607    -2.4509     0.8066 H       
  38 H38            2.1609    -1.5907     0.3797 H       
  39 H39            3.5290    -2.6852    -1.3502 H       
  40 H40            2.9471    -2.4232    -3.7287 H       
  41 H41            0.9968    -1.0674    -4.3768 H       
  42 H42           -0.2742     1.7294     2.4170 H       
  43 H43           -1.0433     0.1924     2.8798 H       
  44 H44            1.5775     1.2809     4.0040 H       
  45 H45            1.4024    -0.6067     5.4468 H       
  46 H46            0.0049    -1.1136     4.7011 H       
  47 H47           -0.8240     3.2563     5.7852 H       
  48 H48           -2.7189     2.0250     0.9684 H       
  49 H49           -3.1776     2.7551    -0.5728 H       
  50 H50           -3.0480     0.5832    -1.6520 H       
  51 H51           -4.2148     0.6166    -0.3266 H       
  52 H52           -0.4290     1.3043    -2.8181 H       
  53 H53           -1.0808    -0.0784    -3.7300 H       
  54 H54           -1.5025     0.1342    -2.0139 H       
@<TRIPOS>BOND
   1    1    3 1
   2    1    7 ar
   3    1    6 ar
   4    2    9 ar
   5    2   13 ar
   6    2   28 1
   7    3   14 1
   8    3   20 1
   9    3   13 1
  10    4    5 ar
  11    4    8 ar
  12    4   30 1
  13    5    6 ar
  14    5   31 1
  15    6   27 1
  16    7    8 ar
  17    7   32 1
  18    8   33 1
  19    9   10 ar
  20    9   34 1
  21   10   11 ar
  22   10   35 1
  23   11   12 ar
  24   11   36 1
  25   12   13 ar
  26   12   37 1
  27   14   15 ar
  28   14   19 ar
  29   15   16 ar
  30   15   38 1
  31   16   17 ar
  32   16   39 1
  33   17   18 ar
  34   17   40 1
  35   18   19 ar
  36   18   41 1
  37   19   29 1
  38   20   21 1
  39   21   22 1
  40   21   42 1
  41   21   43 1
  42   22   23 1
  43   22   24 1
  44   22   44 1
  45   23   25 1
  46   23   26 2
  47   24   45 1
  48   24   46 1
  49   25   47 1
  50   27   28 1
  51   27   48 1
  52   27   49 1
  53   28   50 1
  54   28   51 1
  55   29   52 1
  56   29   53 1
  57   29   54 1

#	End of record

