#	Name: ASD03950029
#	Creating user name:	WinNT
#	Creation time:	15. 06. 2019 20:48

#	Modifying user name:	WinNT
#	Modification time:	15. 06. 2019 20:48

#	Program:	/corina/corina34_cracker 3.40 0067  02.08.2006

@<TRIPOS>MOLECULE
ASD03950029
  72   76    0    0    0
SMALL
NO_CHARGES


@<TRIPOS>ATOM
   1 N1            -0.0169     1.3942     0.0097 N.pl3   
   2 N2             0.0021    -0.0041     0.0020 N.2     
   3 C3             1.2311    -0.4341    -0.0120 C.2     
   4 C4             2.1093     0.7334    -0.0141 C.ar    
   5 C5             3.4967     0.8990    -0.0268 C.ar    
   6 C6             4.0411     2.1756    -0.0256 C.ar    
   7 C7             3.2112     3.2979    -0.0112 C.ar    
   8 C8             1.8299     3.1501     0.0020 C.ar    
   9 C9             1.2663     1.8606    -0.0000 C.ar    
  10 C10            0.9576     4.3398     0.0177 C.2     
  11 O11           -0.2510     4.2074     0.0293 O.2     
  12 N12            1.5004     5.5734     0.0192 N.am    
  13 N13            1.2107    -4.6672    -0.0344 N.am    
  14 C14            1.6135    -4.0361     1.2298 C.3     
  15 C15            1.1379    -2.5799     1.2275 C.3     
  16 C16            1.6687    -1.8761    -0.0235 C.3     
  17 C17            1.1162    -2.5666    -1.2725 C.3     
  18 C18            1.5916    -4.0227    -1.2986 C.3     
  19 S19            0.3495    -6.0817    -0.0344 S.o2    
  20 O20            0.6708    -6.6876    -1.2790 O.2     
  21 O21            0.6975    -6.7039     1.1948 O.2     
  22 C22           -1.3862    -5.5549    -0.0123 C.3     
  23 C23           -2.2932    -6.7870    -0.0106 C.3     
  24 C24           -3.7571    -6.3427     0.0080 C.3     
  25 N25           -4.6280    -7.5258     0.0096 N.3     
  26 C26           -6.0302    -7.1493     0.2662 C.3     
  27 C27           -6.8686    -7.6742    -0.9183 C.3     
  28 C28           -5.9835    -8.8094    -1.4970 C.3     
  29 C29           -4.5604    -8.2351    -1.2858 C.3     
  30 C30            5.5152     2.3486    -0.0391 C.ar    
  31 C31            6.0691     3.6272    -0.0380 C.ar    
  32 C32            7.4403     3.7823    -0.0501 C.ar    
  33 C33            8.2646     2.6713    -0.0634 C.ar    
  34 C34            7.7201     1.4000    -0.0651 C.ar    
  35 C35            6.3498     1.2333    -0.0472 C.ar    
  36 C36            8.0409     5.1644    -0.0494 C.3     
  37 O37            8.2434     5.5951     1.2981 O.3     
  38 H38           -0.8151     1.9454     0.0166 H       
  39 H39            4.1444     0.0349    -0.0373 H       
  40 H40            3.6454     4.2868    -0.0100 H       
  41 H41            2.4646     5.6790     0.0099 H       
  42 H42            0.9269     6.3556     0.0295 H       
  43 H43            1.1581    -4.5680     2.0651 H       
  44 H44            2.6991    -4.0658     1.3233 H       
  45 H45            0.0483    -2.5531     1.2253 H       
  46 H46            1.5130    -2.0733     2.1168 H       
  47 H47            2.7576    -1.9251    -0.0333 H       
  48 H48            0.0268    -2.5399    -1.2511 H       
  49 H49            1.4759    -2.0505    -2.1627 H       
  50 H50            2.6754    -4.0513    -1.4112 H       
  51 H51            1.1217    -4.5457    -2.1315 H       
  52 H52           -1.5750    -4.9635     0.8837 H       
  53 H53           -1.5942    -4.9518    -0.8961 H       
  54 H54           -2.1044    -7.3784    -0.9066 H       
  55 H55           -2.0852    -7.3901     0.8732 H       
  56 H56           -3.9459    -5.7514     0.9040 H       
  57 H57           -3.9651    -5.7396    -0.8758 H       
  58 H58           -6.3730    -7.6065     1.1945 H       
  59 H59           -6.1172    -6.0647     0.3303 H       
  60 H60           -7.8229    -8.0692    -0.5699 H       
  61 H61           -7.0224    -6.8897    -1.6591 H       
  62 H62           -6.1186    -9.7342    -0.9362 H       
  63 H63           -6.1892    -8.9633    -2.5563 H       
  64 H64           -4.3092    -7.5396    -2.0866 H       
  65 H65           -3.8288    -9.0417    -1.2391 H       
  66 H66            5.4266     4.4952    -0.0279 H       
  67 H67            9.3372     2.7972    -0.0729 H       
  68 H68            8.3681     0.5361    -0.0763 H       
  69 H69            5.9257     0.2401    -0.0440 H       
  70 H70            8.9971     5.1454    -0.5723 H       
  71 H71            7.3647     5.8547    -0.5537 H       
  72 H72            8.6283     6.4789     1.3749 H       
@<TRIPOS>BOND
   1    1    2 1
   2    1    9 1
   3    1   38 1
   4    2    3 2
   5    3    4 1
   6    3   16 1
   7    4    5 ar
   8    4    9 ar
   9    5    6 ar
  10    5   39 1
  11    6    7 ar
  12    6   30 1
  13    7    8 ar
  14    7   40 1
  15    8    9 ar
  16    8   10 1
  17   10   11 2
  18   10   12 am
  19   12   41 1
  20   12   42 1
  21   13   14 1
  22   13   18 1
  23   13   19 am
  24   14   15 1
  25   14   43 1
  26   14   44 1
  27   15   16 1
  28   15   45 1
  29   15   46 1
  30   16   17 1
  31   16   47 1
  32   17   18 1
  33   17   48 1
  34   17   49 1
  35   18   50 1
  36   18   51 1
  37   19   20 2
  38   19   21 2
  39   19   22 1
  40   22   23 1
  41   22   52 1
  42   22   53 1
  43   23   24 1
  44   23   54 1
  45   23   55 1
  46   24   25 1
  47   24   56 1
  48   24   57 1
  49   25   26 1
  50   25   29 1
  51   26   27 1
  52   26   58 1
  53   26   59 1
  54   27   28 1
  55   27   60 1
  56   27   61 1
  57   28   29 1
  58   28   62 1
  59   28   63 1
  60   29   64 1
  61   29   65 1
  62   30   31 ar
  63   30   35 ar
  64   31   32 ar
  65   31   66 1
  66   32   33 ar
  67   32   36 1
  68   33   34 ar
  69   33   67 1
  70   34   35 ar
  71   34   68 1
  72   35   69 1
  73   36   37 1
  74   36   70 1
  75   36   71 1
  76   37   72 1

#	End of record

