#	Name: ASD00110023
#	Creating user name:	WinNT
#	Creation time:	15. 06. 2019 18:30

#	Modifying user name:	WinNT
#	Modification time:	15. 06. 2019 18:30

#	Program:	/corina/corina34_cracker 3.40 0067  02.08.2006

@<TRIPOS>MOLECULE
ASD00110023
  68   68    0    0    0
SMALL
NO_CHARGES


@<TRIPOS>ATOM
   1 C1             0.2572     1.3806    -0.2235 C.3     
   2 C2             1.3911     3.5856     0.0696 C.3     
   3 C3             0.6602     4.1307    -1.1303 C.2     
   4 N4             1.1681     3.9542    -2.3662 N.am    
   5 O5            -0.3850     4.7282    -0.9839 O.2     
   6 C6             0.4576     4.4841    -3.5327 C.3     
   7 C7            -0.6030     3.4781    -3.9842 C.3     
   8 O8             0.0364     2.2846    -4.4411 O.3     
   9 C9             1.4520     4.7222    -4.6708 C.3     
  10 O10            1.9973     3.4717    -5.0962 O.3     
  11 C11            0.4710    -0.1299    -0.3408 C.3     
  12 C12           -0.8742    -0.8183    -0.5805 C.3     
  13 N13            0.5926     3.8238     1.2787 N.3     
  14 C14           -0.7322     3.1995     1.1716 C.3     
  15 C15           -0.5733     1.6843     1.0265 C.3     
  16 C16            1.6134     2.0820    -0.1085 C.3     
  17 C17            2.5812     5.6303    -4.1798 C.3     
  18 C18           -0.6604    -2.3287    -0.6977 C.3     
  19 C19           -2.0055    -3.0172    -0.9375 C.3     
  20 C20           -1.7917    -4.5276    -1.0547 C.3     
  21 C21           -3.1369    -5.2160    -1.2944 C.3     
  22 C22           -2.9230    -6.7265    -1.4116 C.3     
  23 C23           -4.2682    -7.4149    -1.6514 C.3     
  24 C24           -4.0544    -8.9254    -1.7686 C.3     
  25 C25           -5.3996    -9.6138    -2.0083 C.3     
  26 C26           -5.1857   -11.1242    -2.1255 C.3     
  27 H27           -0.2670     1.7439    -1.1074 H       
  28 H28            2.3546     4.0861     0.1662 H       
  29 H29            2.0041     3.4764    -2.4834 H       
  30 H30           -0.0239     5.4255    -3.2680 H       
  31 H31           -1.2589     3.2410    -3.1465 H       
  32 H32           -1.1905     3.9088    -4.7951 H       
  33 H33           -0.5769     1.6009    -4.7435 H       
  34 H34            0.9401     5.1986    -5.5069 H       
  35 H35            2.4683     2.9913    -4.4016 H       
  36 H36            1.1398    -0.3384    -1.1758 H       
  37 H37            0.9128    -0.5069     0.5816 H       
  38 H38           -1.5430    -0.6097     0.2545 H       
  39 H39           -1.3160    -0.4412    -1.5028 H       
  40 H40            1.0786     3.5019     2.1022 H       
  41 H41           -1.3110     3.4197     2.0686 H       
  42 H42           -1.2509     3.5956     0.2986 H       
  43 H43           -1.5562     1.2228     0.9314 H       
  44 H44           -0.0670     1.2856     1.9055 H       
  45 H45            2.1542     1.6895     0.7527 H       
  46 H46            2.1928     1.9045    -1.0145 H       
  47 H47            3.0932     5.1539    -3.3437 H       
  48 H48            3.2897     5.7999    -4.9906 H       
  49 H49            2.1653     6.5842    -3.8553 H       
  50 H50            0.0085    -2.5373    -1.5327 H       
  51 H51           -0.2185    -2.7058     0.2246 H       
  52 H52           -2.6743    -2.8086    -0.1024 H       
  53 H53           -2.4474    -2.6401    -1.8598 H       
  54 H54           -1.1229    -4.7362    -1.8897 H       
  55 H55           -1.3499    -4.9047    -0.1323 H       
  56 H56           -3.8057    -5.0075    -0.4594 H       
  57 H57           -3.5787    -4.8390    -2.2167 H       
  58 H58           -2.2542    -6.9350    -2.2467 H       
  59 H59           -2.4812    -7.1035    -0.4893 H       
  60 H60           -4.9370    -7.2064    -0.8163 H       
  61 H61           -4.7101    -7.0379    -2.5737 H       
  62 H62           -3.3856    -9.1339    -2.6036 H       
  63 H63           -3.6125    -9.3024    -0.8462 H       
  64 H64           -6.0684    -9.4052    -1.1733 H       
  65 H65           -5.8414    -9.2367    -2.9307 H       
  66 H66           -6.1441   -11.6147    -2.2963 H       
  67 H67           -4.5169   -11.3328    -2.9606 H       
  68 H68           -4.7439   -11.5013    -1.2032 H       
@<TRIPOS>BOND
   1    1   11 1
   2    1   16 1
   3    1   15 1
   4    1   27 1
   5    2    3 1
   6    2   13 1
   7    2   16 1
   8    2   28 1
   9    3    4 am
  10    3    5 2
  11    4    6 1
  12    4   29 1
  13    6    7 1
  14    6    9 1
  15    6   30 1
  16    7    8 1
  17    7   31 1
  18    7   32 1
  19    8   33 1
  20    9   10 1
  21    9   17 1
  22    9   34 1
  23   10   35 1
  24   11   12 1
  25   11   36 1
  26   11   37 1
  27   12   18 1
  28   12   38 1
  29   12   39 1
  30   13   14 1
  31   13   40 1
  32   14   15 1
  33   14   41 1
  34   14   42 1
  35   15   43 1
  36   15   44 1
  37   16   45 1
  38   16   46 1
  39   17   47 1
  40   17   48 1
  41   17   49 1
  42   18   19 1
  43   18   50 1
  44   18   51 1
  45   19   20 1
  46   19   52 1
  47   19   53 1
  48   20   21 1
  49   20   54 1
  50   20   55 1
  51   21   22 1
  52   21   56 1
  53   21   57 1
  54   22   23 1
  55   22   58 1
  56   22   59 1
  57   23   24 1
  58   23   60 1
  59   23   61 1
  60   24   25 1
  61   24   62 1
  62   24   63 1
  63   25   26 1
  64   25   64 1
  65   25   65 1
  66   26   66 1
  67   26   67 1
  68   26   68 1

#	End of record

