#	Name: ASD00122044
#	Creating user name:	WinNT
#	Creation time:	15. 06. 2019 18:31

#	Modifying user name:	WinNT
#	Modification time:	15. 06. 2019 18:31

#	Program:	/corina/corina34_cracker 3.40 0067  02.08.2006

@<TRIPOS>MOLECULE
ASD00122044
  39   39    0    0    0
SMALL
NO_CHARGES


@<TRIPOS>ATOM
   1 C1            -0.0166     1.3728     0.0096 C.ar    
   2 C2             0.0021    -0.0041     0.0020 C.ar    
   3 C3             1.2226    -0.6843    -0.0133 C.ar    
   4 C4             2.4197     0.0363    -0.0208 C.ar    
   5 C5             2.3926     1.4130    -0.0132 C.ar    
   6 C6             1.1765     2.0859     0.0020 C.ar    
   7 O7             1.1539     3.4428     0.0095 O.3     
   8 C8            -0.1299     4.0702     0.0251 C.3     
   9 C9             0.0453     5.5901     0.0316 C.3     
  10 C10            1.2471    -2.1601    -0.0209 C.2     
  11 O11            0.2045    -2.7855    -0.0140 O.2     
  12 N12            2.4253    -2.8144    -0.0357 N.am    
  13 C13            2.4497    -4.2792    -0.0433 C.3     
  14 C14            3.9004    -4.7650    -0.0598 C.3     
  15 O15            4.5448    -4.3825     1.1569 O.3     
  16 C16            5.9116    -4.7902     1.2439 C.3     
  17 C17            6.4971    -4.3298     2.5804 C.3     
  18 C18            7.9606    -4.7663     2.6734 C.3     
  19 H19           -0.9595     1.8993     0.0169 H       
  20 H20           -0.9253    -0.5575     0.0082 H       
  21 H21            3.3651    -0.4858    -0.0323 H       
  22 H22            3.3175     1.9707    -0.0186 H       
  23 H23           -0.6904     3.7729    -0.8612 H       
  24 H24           -0.6735     3.7633     0.9187 H       
  25 H25           -0.9340     6.0687     0.0435 H       
  26 H26            0.6058     5.8875     0.9179 H       
  27 H27            0.5888     5.8971    -0.8619 H       
  28 H28            3.2571    -2.3155    -0.0412 H       
  29 H29            1.9507    -4.6555     0.8497 H       
  30 H30            1.9334    -4.6466    -0.9302 H       
  31 H31            3.9189    -5.8507    -0.1551 H       
  32 H32            4.4240    -4.3172    -0.9045 H       
  33 H33            5.9719    -5.8764     1.1757 H       
  34 H34            6.4769    -4.3429     0.4262 H       
  35 H35            6.4369    -3.2436     2.6485 H       
  36 H36            5.9319    -4.7771     3.3980 H       
  37 H37            8.0208    -5.8525     2.6053 H       
  38 H38            8.5258    -4.3190     1.8558 H       
  39 H39            8.3777    -4.4383     3.6256 H       
@<TRIPOS>BOND
   1    1    2 ar
   2    1    6 ar
   3    1   19 1
   4    2    3 ar
   5    2   20 1
   6    3    4 ar
   7    3   10 1
   8    4    5 ar
   9    4   21 1
  10    5    6 ar
  11    5   22 1
  12    6    7 1
  13    7    8 1
  14    8    9 1
  15    8   23 1
  16    8   24 1
  17    9   25 1
  18    9   26 1
  19    9   27 1
  20   10   11 2
  21   10   12 am
  22   12   13 1
  23   12   28 1
  24   13   14 1
  25   13   29 1
  26   13   30 1
  27   14   15 1
  28   14   31 1
  29   14   32 1
  30   15   16 1
  31   16   17 1
  32   16   33 1
  33   16   34 1
  34   17   18 1
  35   17   35 1
  36   17   36 1
  37   18   37 1
  38   18   38 1
  39   18   39 1

#	End of record

