#	Name: ASD09116137
#	Creating user name:	WinNT
#	Creation time:	15. 06. 2019 21:20

#	Modifying user name:	WinNT
#	Modification time:	15. 06. 2019 21:20

#	Program:	/corina/corina34_cracker 3.40 0067  02.08.2006

@<TRIPOS>MOLECULE
ASD09116137
  74   81    0    0    0
SMALL
NO_CHARGES


@<TRIPOS>ATOM
   1 N1            -0.0677     1.6541    -0.6210 N.2     
   2 C2            -0.1009     0.3662    -1.3363 C.3     
   3 C3             1.1813     2.0331    -0.6019 C.2     
   4 N4             2.0027     1.1587    -1.2180 N.2     
   5 C5             1.3533     0.1285    -1.6940 C.2     
   6 N6             1.6151     3.2041    -0.0139 N.pl3   
   7 C7             2.9861     3.4804     0.0687 C.ar    
   8 C8             3.4368     4.7908    -0.0204 C.ar    
   9 C9             3.8937     2.4445     0.2453 C.ar    
  10 C10            5.2448     2.7167     0.3272 C.ar    
  11 C11            5.6962     4.0267     0.2324 C.ar    
  12 C12            4.7879     5.0633     0.0610 C.ar    
  13 N13            1.8728    -0.9331    -2.3673 N.pl3   
  14 C14           -0.6128    -0.7288    -0.4363 C.ar    
  15 N15           -0.1742    -0.7927     0.8049 N.ar    
  16 N16           -1.4916    -1.5921    -0.9142 N.ar    
  17 C17           -1.9548    -2.5575    -0.1512 C.ar    
  18 C18           -1.5098    -2.6602     1.1629 C.ar    
  19 C19           -0.5987    -1.7411     1.6306 C.ar    
  20 C20           -2.9525    -3.6915    -0.3831 C.3     
  21 C21           -4.1967    -3.2930     0.4727 C.3     
  22 C22           -3.7002    -3.4075     1.9340 C.3     
  23 C23           -2.2118    -3.8601     1.7939 C.3     
  24 C24           -2.3241    -4.8017     0.5380 C.3     
  25 N25            7.0655     4.3028     0.3158 N.3     
  26 C26            7.3203     5.7437     0.1920 C.3     
  27 C27            8.8292     5.9937     0.1414 C.3     
  28 C28            9.4748     5.4502     1.4191 C.3     
  29 C29            9.1538     3.9588     1.5491 C.3     
  30 C30            7.6354     3.7677     1.5589 C.3     
  31 C31           10.9910     5.6426     1.3475 C.3     
  32 C32           11.3366     7.1356     1.0599 C.3     
  33 C33           10.4743     7.9394     2.0805 C.3     
  34 C34           11.1200     7.6464     3.4541 C.3     
  35 C35           12.3117     6.6931     3.1340 C.3     
  36 C36           11.6368     5.3495     2.7211 C.3     
  37 C37           12.7519     7.2401     1.7303 C.3     
  38 H38           -0.7132     0.4412    -2.2350 H       
  39 H39            0.9707     3.8357     0.3422 H       
  40 H40            2.7305     5.5969    -0.1537 H       
  41 H41            3.5427     1.4257     0.3190 H       
  42 H42            5.9507     1.9111     0.4653 H       
  43 H43            5.1388     6.0820    -0.0131 H       
  44 H44            2.8263    -0.9785    -2.5398 H       
  45 H45            1.2899    -1.6447    -2.6750 H       
  46 H46           -0.2335    -1.7932     2.6457 H       
  47 H47           -3.1477    -3.9565    -1.4223 H       
  48 H48           -4.5006    -2.2699     0.2516 H       
  49 H49           -5.0204    -3.9842     0.2940 H       
  50 H50           -3.7600    -2.4411     2.4346 H       
  51 H51           -4.2778    -4.1561     2.4763 H       
  52 H52           -1.7478    -4.2744     2.6890 H       
  53 H53           -3.0049    -5.6364     0.7049 H       
  54 H54           -1.3495    -5.1344     0.1806 H       
  55 H55            6.8595     6.1167    -0.7227 H       
  56 H56            6.8947     6.2629     1.0507 H       
  57 H57            9.2534     5.4861    -0.7249 H       
  58 H58            9.0183     7.0645     0.0652 H       
  59 H59            9.0793     5.9847     2.2828 H       
  60 H60            9.5830     3.4191     0.7050 H       
  61 H61            9.5748     3.5756     2.4787 H       
  62 H62            7.2084     4.2962     2.4112 H       
  63 H63            7.4035     2.7055     1.6371 H       
  64 H64           11.4191     4.9987     0.5792 H       
  65 H65           11.2600     7.4505     0.0192 H       
  66 H66           10.5193     9.0058     1.8592 H       
  67 H67            9.4418     7.5902     2.0638 H       
  68 H68           11.4825     8.5687     3.9080 H       
  69 H69           10.4051     7.1531     4.1126 H       
  70 H70           13.0844     6.6226     3.8996 H       
  71 H71           10.8741     5.0684     3.4473 H       
  72 H72           12.3841     4.5614     2.6292 H       
  73 H73           13.4815     6.5893     1.2484 H       
  74 H74           13.1033     8.2704     1.7849 H       
@<TRIPOS>BOND
   1    1    2 1
   2    1    3 2
   3    2   14 1
   4    2    5 1
   5    2   38 1
   6    3    4 1
   7    3    6 1
   8    4    5 2
   9    5   13 1
  10    6    7 1
  11    6   39 1
  12    7    8 ar
  13    7    9 ar
  14    8   12 ar
  15    8   40 1
  16    9   10 ar
  17    9   41 1
  18   10   11 ar
  19   10   42 1
  20   11   12 ar
  21   11   25 1
  22   12   43 1
  23   13   44 1
  24   13   45 1
  25   14   15 ar
  26   14   16 ar
  27   15   19 ar
  28   16   17 ar
  29   17   18 ar
  30   17   20 1
  31   18   19 ar
  32   18   23 1
  33   19   46 1
  34   20   21 1
  35   20   24 1
  36   20   47 1
  37   21   22 1
  38   21   48 1
  39   21   49 1
  40   22   23 1
  41   22   50 1
  42   22   51 1
  43   23   24 1
  44   23   52 1
  45   24   53 1
  46   24   54 1
  47   25   26 1
  48   25   30 1
  49   26   27 1
  50   26   55 1
  51   26   56 1
  52   27   28 1
  53   27   57 1
  54   27   58 1
  55   28   29 1
  56   28   31 1
  57   28   59 1
  58   29   30 1
  59   29   60 1
  60   29   61 1
  61   30   62 1
  62   30   63 1
  63   31   32 1
  64   31   36 1
  65   31   64 1
  66   32   33 1
  67   32   37 1
  68   32   65 1
  69   33   34 1
  70   33   66 1
  71   33   67 1
  72   34   35 1
  73   34   68 1
  74   34   69 1
  75   35   36 1
  76   35   37 1
  77   35   70 1
  78   36   71 1
  79   36   72 1
  80   37   73 1
  81   37   74 1

#	End of record

