#	Name: ASD01028136
#	Creating user name:	WinNT
#	Creation time:	15. 06. 2019 18:56

#	Modifying user name:	WinNT
#	Modification time:	15. 06. 2019 18:56

#	Program:	/corina/corina34_cracker 3.40 0067  02.08.2006

@<TRIPOS>MOLECULE
ASD01028136
  47   48    0    0    0
SMALL
NO_CHARGES


@<TRIPOS>ATOM
   1 C1             0.6370     1.3554     1.2471 C.ar    
   2 C2             0.6326    -0.0253     1.1846 C.ar    
   3 C3             1.4050    -0.6807     0.2360 C.ar    
   4 C4             2.1836     0.0539    -0.6525 C.ar    
   5 C5             2.1841     1.4428    -0.5857 C.ar    
   6 C6             1.4092     2.0888     0.3661 C.ar    
   7 O7             3.0176    -0.3358    -1.6614 O.3     
   8 C8             3.2114     0.8372    -2.4739 C.3     
   9 O9             3.0184     1.9263    -1.5520 O.3     
  10 N10            1.4010    -2.0811     0.1735 N.am    
  11 C11            2.5355    -2.7694     0.4091 C.2     
  12 O12            2.5094    -4.1149     0.4555 O.3     
  13 O13            3.5820    -2.1758     0.5797 O.2     
  14 C14           -0.2113    -0.8198     2.1477 C.3     
  15 N15            0.6340    -1.3252     3.2376 N.3     
  16 C16            1.1533    -0.2215     4.0562 C.3     
  17 C17           -0.0967    -2.2951     4.0642 C.3     
  18 C18           -0.1955    -3.6279     3.3193 C.3     
  19 O19            1.1098    -4.1916     3.1765 O.3     
  20 C20            3.7686    -4.7902     0.7136 C.3     
  21 C21            4.3187    -4.3428     2.0694 C.3     
  22 C22            3.5421    -6.3033     0.7294 C.3     
  23 C23            4.7720    -4.4362    -0.3859 C.3     
  24 H24            0.0317     1.8629     1.9836 H       
  25 H25            1.4086     3.1675     0.4184 H       
  26 H26            4.2211     0.8567    -2.8839 H       
  27 H27            2.4713     0.8761    -3.2732 H       
  28 H28            0.5817    -2.5548    -0.0393 H       
  29 H29           -0.9918    -0.1802     2.5599 H       
  30 H30           -0.6684    -1.6590     1.6234 H       
  31 H31            0.3234     0.3905     4.4096 H       
  32 H32            1.6955    -0.6267     4.9106 H       
  33 H33            1.8263     0.3907     3.4559 H       
  34 H34            0.4335    -2.4431     5.0050 H       
  35 H35           -1.0988    -1.9173     4.2674 H       
  36 H36           -0.8276    -4.3135     3.8836 H       
  37 H37           -0.6294    -3.4618     2.3333 H       
  38 H38            1.1233    -5.0398     2.7122 H       
  39 H39            3.6039    -4.5950     2.8527 H       
  40 H40            5.2640    -4.8497     2.2632 H       
  41 H41            4.4801    -3.2648     2.0582 H       
  42 H42            3.1502    -6.6220    -0.2365 H       
  43 H43            4.4874    -6.8102     0.9231 H       
  44 H44            2.8273    -6.5555     1.5126 H       
  45 H45            4.9333    -3.3582    -0.3971 H       
  46 H46            5.7173    -4.9431    -0.1921 H       
  47 H47            4.3801    -4.7549    -1.3517 H       
@<TRIPOS>BOND
   1    1    2 ar
   2    1    6 ar
   3    1   24 1
   4    2    3 ar
   5    2   14 1
   6    3    4 ar
   7    3   10 1
   8    4    5 ar
   9    4    7 1
  10    5    6 ar
  11    5    9 1
  12    6   25 1
  13    7    8 1
  14    8    9 1
  15    8   26 1
  16    8   27 1
  17   10   11 am
  18   10   28 1
  19   11   12 1
  20   11   13 2
  21   12   20 1
  22   14   15 1
  23   14   29 1
  24   14   30 1
  25   15   16 1
  26   15   17 1
  27   16   31 1
  28   16   32 1
  29   16   33 1
  30   17   18 1
  31   17   34 1
  32   17   35 1
  33   18   19 1
  34   18   36 1
  35   18   37 1
  36   19   38 1
  37   20   21 1
  38   20   22 1
  39   20   23 1
  40   21   39 1
  41   21   40 1
  42   21   41 1
  43   22   42 1
  44   22   43 1
  45   22   44 1
  46   23   45 1
  47   23   46 1
  48   23   47 1

#	End of record

