#	Name: ASD03092907
#	Creating user name:	WinNT
#	Creation time:	15. 06. 2019 20:33

#	Modifying user name:	WinNT
#	Modification time:	15. 06. 2019 20:33

#	Program:	/corina/corina34_cracker 3.40 0067  02.08.2006

@<TRIPOS>MOLECULE
ASD03092907
  47   49    0    0    0
SMALL
NO_CHARGES


@<TRIPOS>ATOM
   1 O1            -0.0173     1.4248     0.0099 O.3     
   2 C2             0.0021    -0.0041     0.0020 C.3     
   3 C3            -1.4333    -0.5336     0.0129 C.3     
   4 H4            -1.4190    -1.6203     0.0965 H       
   5 N5            -2.1054    -0.1483    -1.2305 N.am    
   6 C6            -1.9698    -0.9103    -2.3339 C.2     
   7 O7            -1.2914    -1.9150    -2.2975 O.2     
   8 C8            -2.6612    -0.5139    -3.6130 C.3     
   9 H9            -3.6322    -0.0333    -3.4931 H       
  10 C10           -1.7825    -0.0507    -4.7767 C.3     
  11 C11           -2.4665    -1.4191    -4.8310 C.3     
  12 H12           -1.8384    -2.3012    -4.7073 H       
  13 C13           -3.6317    -1.5775    -5.7735 C.ar    
  14 C14           -4.1542    -0.4716    -6.4178 C.ar    
  15 C15           -5.2227    -0.6156    -7.2824 C.ar    
  16 C16           -5.7697    -1.8682    -7.5035 C.ar    
  17 F17           -6.8139    -2.0103    -8.3487 F       
  18 C18           -5.2452    -2.9752    -6.8579 C.ar    
  19 C19           -4.1736    -2.8294    -5.9975 C.ar    
  20 C20           -2.1755     0.0508     1.1870 C.ar    
  21 C21           -2.6905     1.3316     1.1098 C.ar    
  22 C22           -3.3712     1.8696     2.1847 C.ar    
  23 C23           -3.5383     1.1235     3.3423 C.ar    
  24 O24           -4.2080     1.6504     4.4010 O.3     
  25 C25           -4.3418     0.8250     5.5598 C.3     
  26 C26           -5.1186     1.5826     6.6386 C.3     
  27 F27           -6.4254     1.8143     6.1963 F       
  28 C28           -3.0210    -0.1616     3.4171 C.ar    
  29 C29           -2.3452    -0.6969     2.3377 C.ar    
  30 H30            0.8606     1.8301     0.0037 H       
  31 H31            0.5123    -0.3556    -0.8948 H       
  32 H32            0.5293    -0.3651     0.8851 H       
  33 H33           -2.6480     0.6552    -1.2597 H       
  34 H34           -2.1756     0.7344    -5.4227 H       
  35 H35           -0.7044    -0.0327    -4.6172 H       
  36 H36           -3.7274     0.5054    -6.2452 H       
  37 H37           -5.6312     0.2486    -7.7851 H       
  38 H38           -5.6712    -3.9527    -7.0294 H       
  39 H39           -3.7617    -3.6933    -5.4971 H       
  40 H40           -2.5601     1.9121     0.2084 H       
  41 H41           -3.7727     2.8704     2.1241 H       
  42 H42           -4.8796    -0.0859     5.2970 H       
  43 H43           -3.3528     0.5667     5.9381 H       
  44 H44           -5.1441     0.9890     7.5524 H       
  45 H45           -4.6281     2.5355     6.8378 H       
  46 H46           -3.1495    -0.7444     4.3173 H       
  47 H47           -1.9459    -1.6987     2.3939 H       
@<TRIPOS>BOND
   1    1    2 1
   2    1   30 1
   3    2    3 1
   4    2   31 1
   5    2   32 1
   6    3    4 1
   7    3    5 1
   8    3   20 1
   9    5    6 am
  10    5   33 1
  11    6    7 2
  12    6    8 1
  13    8    9 1
  14    8   11 1
  15    8   10 1
  16   10   11 1
  17   10   34 1
  18   10   35 1
  19   11   12 1
  20   11   13 1
  21   13   19 ar
  22   13   14 ar
  23   14   15 ar
  24   14   36 1
  25   15   16 ar
  26   15   37 1
  27   16   17 1
  28   16   18 ar
  29   18   19 ar
  30   18   38 1
  31   19   39 1
  32   20   29 ar
  33   20   21 ar
  34   21   22 ar
  35   21   40 1
  36   22   23 ar
  37   22   41 1
  38   23   24 1
  39   23   28 ar
  40   24   25 1
  41   25   26 1
  42   25   42 1
  43   25   43 1
  44   26   27 1
  45   26   44 1
  46   26   45 1
  47   28   29 ar
  48   28   46 1
  49   29   47 1

#	End of record

