#	Name: ASD01230134
#	Creating user name:	WinNT
#	Creation time:	15. 06. 2019 19:11

#	Modifying user name:	WinNT
#	Modification time:	15. 06. 2019 19:11

#	Program:	/corina/corina34_cracker 3.40 0067  02.08.2006

@<TRIPOS>MOLECULE
ASD01230134
  56   57    0    0    0
SMALL
NO_CHARGES


@<TRIPOS>ATOM
   1 C1            -0.0167     1.3790     0.0096 C.ar    
   2 N2            -2.7481     3.6027     1.3456 N.am    
   3 O3             8.0511    -6.4471    -2.1426 O.2     
   4 S4             9.0945    -5.5323    -2.4488 S.o2    
   5 C5             0.0021    -0.0041     0.0020 C.ar    
   6 N6             8.8375    -4.2603    -1.4201 N.am    
   7 O7            10.4570    -5.8795    -2.2431 O.2     
   8 S8            -3.2651     4.2916     2.7600 S.o2    
   9 C9             1.2051    -0.6804    -0.0126 C.ar    
  10 O10           -4.5752     4.7563     2.4650 O.2     
  11 C11            2.4022     0.0327    -0.0202 C.ar    
  12 O12           -3.0480     3.2855     3.7397 O.2     
  13 C13            2.3774     1.4258    -0.0129 C.ar    
  14 C14            1.1686     2.0919     0.0021 C.ar    
  15 C15            6.1176    -2.0352    -0.0630 C.ar    
  16 C16            6.0988    -0.6522    -0.0568 C.ar    
  17 C17            4.8958     0.0241    -0.0430 C.ar    
  18 C18            3.6987    -0.6889    -0.0354 C.ar    
  19 C19            3.7235    -2.0821    -0.0418 C.ar    
  20 C20            4.9323    -2.7481    -0.0555 C.ar    
  21 C21            7.4343    -2.7681    -0.0838 C.3     
  22 C22           -1.3334     2.1119     0.0198 C.3     
  23 C23           -1.4224     2.9833     1.2742 C.3     
  24 C24           -1.4342     2.9969    -1.2242 C.3     
  25 C25            7.5459    -3.6517     1.1603 C.3     
  26 C26            7.5124    -3.6409    -1.3379 C.3     
  27 C27            8.8597    -4.8298    -4.1047 C.3     
  28 C28           -2.1380     5.6886     3.0215 C.3     
  29 H29           -3.3230     3.6093     0.5643 H       
  30 H30           -0.9264    -0.5558     0.0079 H       
  31 H31            9.5642    -3.9254    -0.8719 H       
  32 H32            1.2186    -1.7603    -0.0178 H       
  33 H33            3.3023     1.9834    -0.0184 H       
  34 H34            1.1483     3.1717     0.0078 H       
  35 H35            7.0273    -0.1005    -0.0627 H       
  36 H36            4.8823     1.1040    -0.0375 H       
  37 H37            2.7986    -2.6397    -0.0356 H       
  38 H38            4.9527    -3.8279    -0.0608 H       
  39 H39            8.2515    -2.0468    -0.0916 H       
  40 H40           -2.1507     1.3906     0.0198 H       
  41 H41           -0.6598     3.7610     1.2312 H       
  42 H42           -1.2619     2.3656     2.1579 H       
  43 H43           -1.3708     2.3761    -2.1178 H       
  44 H44           -2.3866     3.5270    -1.2168 H       
  45 H45           -0.6169     3.7181    -1.2241 H       
  46 H46            6.7287    -4.3729     1.1681 H       
  47 H47            8.4982    -4.1817     1.1452 H       
  48 H48            7.4902    -3.0298     2.0538 H       
  49 H49            7.3442    -3.0242    -2.2209 H       
  50 H50            6.7503    -4.4186    -1.2874 H       
  51 H51            7.8476    -4.4345    -4.1915 H       
  52 H52            9.5786    -4.0261    -4.2638 H       
  53 H53            9.0117    -5.6068    -4.8539 H       
  54 H54           -2.2137     6.3788     2.1813 H       
  55 H55           -2.4081     6.2059     3.9421 H       
  56 H56           -1.1149     5.3205     3.0984 H       
@<TRIPOS>BOND
   1    1    5 ar
   2    1   14 ar
   3    1   22 1
   4    2    8 am
   5    2   23 1
   6    2   29 1
   7    3    4 2
   8    4    6 am
   9    4    7 2
  10    4   27 1
  11    5    9 ar
  12    5   30 1
  13    6   26 1
  14    6   31 1
  15    8   10 2
  16    8   12 2
  17    8   28 1
  18    9   11 ar
  19    9   32 1
  20   11   13 ar
  21   11   18 1
  22   13   14 ar
  23   13   33 1
  24   14   34 1
  25   15   16 ar
  26   15   20 ar
  27   15   21 1
  28   16   17 ar
  29   16   35 1
  30   17   18 ar
  31   17   36 1
  32   18   19 ar
  33   19   20 ar
  34   19   37 1
  35   20   38 1
  36   21   25 1
  37   21   26 1
  38   21   39 1
  39   22   23 1
  40   22   24 1
  41   22   40 1
  42   23   41 1
  43   23   42 1
  44   24   43 1
  45   24   44 1
  46   24   45 1
  47   25   46 1
  48   25   47 1
  49   25   48 1
  50   26   49 1
  51   26   50 1
  52   27   51 1
  53   27   52 1
  54   27   53 1
  55   28   54 1
  56   28   55 1
  57   28   56 1

#	End of record

