#	Name: ASD01911040
#	Creating user name:	WinNT
#	Creation time:	15. 06. 2019 19:57

#	Modifying user name:	WinNT
#	Modification time:	15. 06. 2019 19:57

#	Program:	/corina/corina34_cracker 3.40 0067  02.08.2006

@<TRIPOS>MOLECULE
ASD01911040
  52   55    0    0    0
SMALL
NO_CHARGES


@<TRIPOS>ATOM
   1 N1            -4.7518    -3.3311     1.0062 N.3     
   2 C2            -3.5024    -2.6301     1.3313 C.3     
   3 C3            -2.6795    -2.4403     0.0526 C.3     
   4 N4            -3.5232    -1.7744    -0.9514 N.am    
   5 C5            -4.8506    -2.3422    -1.2320 C.3     
   6 C6            -5.5880    -2.5359     0.0973 C.3     
   7 C7            -3.0915    -0.6728    -1.5969 C.2     
   8 C8            -3.8995    -0.0921    -2.6876 C.ar    
   9 C9            -4.0113     1.2960    -2.8123 C.ar    
  10 C10           -4.7643     1.8434    -3.8286 C.ar    
  11 C11           -5.4171     1.0216    -4.7355 C.ar    
  12 C12           -5.3124    -0.3742    -4.6204 C.ar    
  13 C13           -4.5468    -0.9279    -3.5971 C.ar    
  14 C14           -5.9861    -1.2249    -5.5548 C.1     
  15 O15           -2.0366    -0.1574    -1.2811 O.2     
  16 C16           -6.5384    -1.9223    -6.3208 C.1     
  17 C17           -7.2122    -2.7730    -7.2551 C.ar    
  18 C18           -7.1081    -4.1620    -7.1409 C.ar    
  19 C19           -7.7591    -4.9757    -8.0436 C.ar    
  20 C20           -8.5152    -4.4189    -9.0632 C.ar    
  21 C21           -8.6223    -3.0421    -9.1818 C.ar    
  22 C22           -7.9811    -2.2178    -8.2816 C.ar    
  23 C23           -5.4469    -3.6646     2.1556 C.ar    
  24 O24           -6.1572     1.5661    -5.7334 O.3     
  25 N25           -6.6022    -4.3046     2.0500 N.ar    
  26 C26           -7.2916    -4.6380     3.1286 C.ar    
  27 C27           -6.7915    -4.3097     4.3789 C.ar    
  28 C28           -5.5801    -3.6402     4.4531 C.ar    
  29 N29           -4.9386    -3.3411     3.3357 N.ar    
  30 C30           -6.2202     2.9925    -5.7901 C.3     
  31 F31           -9.1501    -5.2215    -9.9452 F       
  32 H32           -3.7335    -1.6563     1.7630 H       
  33 H33           -2.9304    -3.2196     2.0478 H       
  34 H34           -1.8078    -1.8219     0.2666 H       
  35 H35           -2.3593    -3.4116    -0.3243 H       
  36 H36           -5.4143    -1.6590    -1.8673 H       
  37 H37           -4.7391    -3.3042    -1.7323 H       
  38 H38           -6.5286    -3.0571    -0.0811 H       
  39 H39           -5.7901    -1.5634     0.5462 H       
  40 H40           -3.5059     1.9417    -2.1094 H       
  41 H41           -4.8467     2.9165    -3.9190 H       
  42 H42           -4.4618    -2.0004    -3.5031 H       
  43 H43           -6.5187    -4.5970    -6.3473 H       
  44 H44           -7.6795    -6.0493    -7.9564 H       
  45 H45           -9.2126    -2.6141    -9.9785 H       
  46 H46           -8.0653    -1.1451    -8.3750 H       
  47 H47           -8.2329    -5.1593     3.0361 H       
  48 H48           -7.3341    -4.5696     5.2758 H       
  49 H49           -5.1631    -3.3696     5.4119 H       
  50 H50           -5.2155     3.3959    -5.9170 H       
  51 H51           -6.8424     3.2955    -6.6323 H       
  52 H52           -6.6507     3.3743    -4.8644 H       
@<TRIPOS>BOND
   1    1    2 1
   2    1   23 1
   3    1    6 1
   4    2    3 1
   5    2   32 1
   6    2   33 1
   7    3    4 1
   8    3   34 1
   9    3   35 1
  10    4    5 1
  11    4    7 am
  12    5    6 1
  13    5   36 1
  14    5   37 1
  15    6   38 1
  16    6   39 1
  17    7    8 1
  18    7   15 2
  19    8    9 ar
  20    8   13 ar
  21    9   10 ar
  22    9   40 1
  23   10   11 ar
  24   10   41 1
  25   11   12 ar
  26   11   24 1
  27   12   13 ar
  28   12   14 1
  29   13   42 1
  30   14   16 3
  31   16   17 1
  32   17   18 ar
  33   17   22 ar
  34   18   19 ar
  35   18   43 1
  36   19   20 ar
  37   19   44 1
  38   20   21 ar
  39   20   31 1
  40   21   22 ar
  41   21   45 1
  42   22   46 1
  43   23   25 ar
  44   23   29 ar
  45   24   30 1
  46   25   26 ar
  47   26   27 ar
  48   26   47 1
  49   27   28 ar
  50   27   48 1
  51   28   29 ar
  52   28   49 1
  53   30   50 1
  54   30   51 1
  55   30   52 1

#	End of record

