#	Name: ASD01816589
#	Creating user name:	WinNT
#	Creation time:	15. 06. 2019 19:35

#	Modifying user name:	WinNT
#	Modification time:	15. 06. 2019 19:35

#	Program:	/corina/corina34_cracker 3.40 0067  02.08.2006

@<TRIPOS>MOLECULE
ASD01816589
  61   66    0    0    0
SMALL
NO_CHARGES


@<TRIPOS>ATOM
   1 C1            -0.0167     1.3800     0.0096 C.ar    
   2 C2             0.0021    -0.0041     0.0020 C.ar    
   3 C3             1.1979    -0.6926    -0.0131 C.ar    
   4 C4             2.4035     0.0001    -0.0203 C.ar    
   5 C5             2.3866     1.4044    -0.0127 C.ar    
   6 C6             1.1719     2.0918     0.0021 C.ar    
   7 N7             3.6049    -0.6875    -0.0345 N.pl3   
   8 C8             4.7989    -0.0731    -0.0421 C.2     
   9 C9             4.9065     1.2952    -0.0362 C.2     
  10 C10            3.6761     2.1192    -0.0207 C.2     
  11 C11            6.0068     2.2543    -0.0413 C.2     
  12 N12            5.4384     3.4793    -0.0301 N.am    
  13 N13            4.0458     3.3681    -0.0178 N.2     
  14 C14            6.1448     4.6895    -0.0303 C.ar    
  15 O15            7.2004     2.0003    -0.0529 O.2     
  16 C16            3.5722    -2.1521    -0.0411 C.3     
  17 C17            3.5480    -2.6477    -1.4641 C.ar    
  18 C18            4.7359    -2.9010    -2.1258 C.ar    
  19 C19            4.7196    -3.3554    -3.4289 C.ar    
  20 C20            3.5035    -3.5589    -4.0779 C.ar    
  21 C21            2.3099    -3.3021    -3.4065 C.ar    
  22 C22            2.3378    -2.8530    -2.1017 C.ar    
  23 C23            5.9126     5.6343     0.9676 C.ar    
  24 C24            3.4797    -4.0469    -5.4791 C.ar    
  25 C25            7.0811     4.9481    -1.0207 C.ar    
  26 C26            7.7765     6.1426    -1.0187 C.ar    
  27 C27            7.5416     7.0817    -0.0317 C.ar    
  28 C28            6.6139     6.8288     0.9621 C.ar    
  29 O29            1.1552     3.4500     0.0100 O.3     
  30 C30            4.6678    -4.3059    -6.1586 C.ar    
  31 N31            4.6480    -4.7396    -7.4025 N.ar    
  32 C32            3.5176    -4.9448    -8.0502 C.ar    
  33 C33            2.2964    -4.7105    -7.4447 C.ar    
  34 C34            2.2648    -4.2595    -6.1364 C.ar    
  35 C35            3.5572    -5.4418    -9.4723 C.3     
  36 O36            4.9999     5.3843     1.9437 O.3     
  37 C37            4.8145     6.3982     2.9336 C.3     
  38 H38           -0.9599     1.9061     0.0169 H       
  39 H39           -0.9292    -0.5510     0.0083 H       
  40 H40            1.1974    -1.7726    -0.0189 H       
  41 H41            5.6980    -0.6713    -0.0528 H       
  42 H42            4.4585    -2.5376     0.4629 H       
  43 H43            2.6790    -2.4979     0.4793 H       
  44 H44            5.6780    -2.7425    -1.6219 H       
  45 H45            5.6478    -3.5525    -3.9448 H       
  46 H46            1.3645    -3.4578    -3.9050 H       
  47 H47            1.4132    -2.6536    -1.5804 H       
  48 H48            7.2670     4.2161    -1.7927 H       
  49 H49            8.5055     6.3427    -1.7901 H       
  50 H50            8.0876     8.0135    -0.0341 H       
  51 H51            6.4328     7.5646     1.7316 H       
  52 H52            1.1425     3.8483    -0.8711 H       
  53 H53            5.6137    -4.1495    -5.6614 H       
  54 H54            1.3773    -4.8815    -7.9854 H       
  55 H55            1.3253    -4.0685    -5.6391 H       
  56 H56            3.5489    -6.5317    -9.4767 H       
  57 H57            2.6862    -5.0696   -10.0117 H       
  58 H58            4.4653    -5.0835    -9.9573 H       
  59 H59            5.7565     6.5763     3.4521 H       
  60 H60            4.4845     7.3192     2.4529 H       
  61 H61            4.0610     6.0724     3.6506 H       
@<TRIPOS>BOND
   1    1    2 ar
   2    1    6 ar
   3    1   38 1
   4    2    3 ar
   5    2   39 1
   6    3    4 ar
   7    3   40 1
   8    4    5 ar
   9    4    7 1
  10    5    6 ar
  11    5   10 1
  12    6   29 1
  13    7    8 1
  14    7   16 1
  15    8    9 2
  16    8   41 1
  17    9   10 1
  18    9   11 1
  19   10   13 2
  20   11   12 am
  21   11   15 2
  22   12   13 1
  23   12   14 1
  24   14   25 ar
  25   14   23 ar
  26   16   17 1
  27   16   42 1
  28   16   43 1
  29   17   18 ar
  30   17   22 ar
  31   18   19 ar
  32   18   44 1
  33   19   20 ar
  34   19   45 1
  35   20   21 ar
  36   20   24 1
  37   21   22 ar
  38   21   46 1
  39   22   47 1
  40   23   36 1
  41   23   28 ar
  42   24   30 ar
  43   24   34 ar
  44   25   26 ar
  45   25   48 1
  46   26   27 ar
  47   26   49 1
  48   27   28 ar
  49   27   50 1
  50   28   51 1
  51   29   52 1
  52   30   31 ar
  53   30   53 1
  54   31   32 ar
  55   32   33 ar
  56   32   35 1
  57   33   34 ar
  58   33   54 1
  59   34   55 1
  60   35   56 1
  61   35   57 1
  62   35   58 1
  63   36   37 1
  64   37   59 1
  65   37   60 1
  66   37   61 1

#	End of record

