#	Name: ASD03330605
#	Creating user name:	WinNT
#	Creation time:	15. 06. 2019 20:37

#	Modifying user name:	WinNT
#	Modification time:	15. 06. 2019 20:37

#	Program:	/corina/corina34_cracker 3.40 0067  02.08.2006

@<TRIPOS>MOLECULE
ASD03330605
  70   72    0    0    0
SMALL
NO_CHARGES


@<TRIPOS>ATOM
   1 C1             1.2431     2.3445    -0.0210 C.2     
   2 N2             0.7170     1.1039     0.0970 N.pl3   
   3 C3             2.5856     2.2340     0.1898 C.2     
   4 N4             2.8609     0.9323     0.4149 N.2     
   5 C5             1.7448     0.2440     0.3554 C.2     
   6 C6             1.6216    -1.2181     0.5385 C.ar    
   7 C7             3.5615     3.3385     0.1742 C.2     
   8 O8             3.1892     4.4759    -0.0419 O.2     
   9 C9             5.8365     4.1857     0.3840 C.3     
  10 N10            4.8665     3.0879     0.3995 N.am    
  11 C11            6.2862     4.4486    -1.0545 C.3     
  12 C12            5.0620     4.7281    -1.9286 C.3     
  13 C13            7.2208     5.6596    -1.0835 C.3     
  14 C14            7.0257     3.2208    -1.5901 C.3     
  15 C15            7.0310     3.8124     1.2235 C.2     
  16 N16            7.9565     4.7430     1.5301 N.am    
  17 O17            7.1595     2.6747     1.6234 O.2     
  18 C18            9.1554     4.3640     2.2820 C.3     
  19 C19           -0.7048     0.7685    -0.0205 C.3     
  20 C20           -1.2812     1.4498    -1.2655 C.3     
  21 C21           -1.7595     2.8538    -0.9093 C.3     
  22 N22           -0.9106     3.4515     0.1235 N.3     
  23 C23            0.4753     3.5999    -0.3447 C.3     
  24 C24           -1.4554     4.7398     0.5722 C.3     
  25 C25            0.3233    -3.1221     1.2144 C.ar    
  26 C26            1.3905    -3.9603     0.8820 C.ar    
  27 C27            2.5761    -3.4163     0.3814 C.ar    
  28 C28            2.6906    -2.0552     0.2114 C.ar    
  29 C29            0.4383    -1.7612     1.0439 C.ar    
  30 C30            1.2676    -5.4211     1.0654 C.2     
  31 N31            1.7424    -6.2608     0.1241 N.am    
  32 O32            0.7382    -5.8658     2.0653 O.2     
  33 C33            1.5293    -7.7043     0.2554 C.3     
  34 C34            2.4717    -5.7300    -1.0303 C.3     
  35 H35            5.3737     5.0852     0.7901 H       
  36 H36            5.1635     2.1807     0.5720 H       
  37 H37            4.5352     5.6028    -1.5471 H       
  38 H38            5.3824     4.9154    -2.9535 H       
  39 H39            4.3962     3.8653    -1.9080 H       
  40 H40            8.0905     5.4625    -0.4566 H       
  41 H41            7.5453     5.8437    -2.1076 H       
  42 H42            6.6924     6.5354    -0.7068 H       
  43 H43            6.3599     2.3581    -1.5695 H       
  44 H44            7.3461     3.4081    -2.6150 H       
  45 H45            7.8978     3.0217    -0.9674 H       
  46 H46            7.8289     5.6637     1.2528 H       
  47 H47            9.7820     5.2428     2.4338 H       
  48 H48            8.8634     3.9545     3.2490 H       
  49 H49            9.7127     3.6126     1.7225 H       
  50 H50           -0.8179    -0.3119    -0.1113 H       
  51 H51           -1.2359     1.1181     0.8648 H       
  52 H52           -0.5105     1.5133    -2.0336 H       
  53 H53           -2.1206     0.8656    -1.6426 H       
  54 H54           -1.7311     3.4788    -1.8019 H       
  55 H55           -2.7848     2.8006    -0.5432 H       
  56 H56            0.9396     4.4500     0.1551 H       
  57 H57            0.4803     3.7623    -1.4225 H       
  58 H58           -2.4532     4.5887     0.9843 H       
  59 H59           -0.8058     5.1618     1.3390 H       
  60 H60           -1.5116     5.4250    -0.2736 H       
  61 H61           -0.5934    -3.5424     1.6011 H       
  62 H62            3.4012    -4.0639     0.1243 H       
  63 H63            3.6071    -1.6346    -0.1752 H       
  64 H64           -0.3865    -1.1132     1.3012 H       
  65 H65            0.5936    -7.9791    -0.2315 H       
  66 H66            2.3546    -8.2378    -0.2161 H       
  67 H67            1.4810    -7.9698     1.3114 H       
  68 H68            3.5211    -5.5971    -0.7673 H       
  69 H69            2.3915    -6.4286    -1.8632 H       
  70 H70            2.0450    -4.7696    -1.3193 H       
@<TRIPOS>BOND
   1    1    2 1
   2    1    3 2
   3    1   23 1
   4    2   19 1
   5    2    5 1
   6    3    4 1
   7    3    7 1
   8    4    5 2
   9    5    6 1
  10    6   29 ar
  11    6   28 ar
  12    7    8 2
  13    7   10 am
  14    9   10 1
  15    9   11 1
  16    9   15 1
  17    9   35 1
  18   10   36 1
  19   11   12 1
  20   11   13 1
  21   11   14 1
  22   12   37 1
  23   12   38 1
  24   12   39 1
  25   13   40 1
  26   13   41 1
  27   13   42 1
  28   14   43 1
  29   14   44 1
  30   14   45 1
  31   15   16 am
  32   15   17 2
  33   16   18 1
  34   16   46 1
  35   18   47 1
  36   18   48 1
  37   18   49 1
  38   19   20 1
  39   19   50 1
  40   19   51 1
  41   20   21 1
  42   20   52 1
  43   20   53 1
  44   21   22 1
  45   21   54 1
  46   21   55 1
  47   22   23 1
  48   22   24 1
  49   23   56 1
  50   23   57 1
  51   24   58 1
  52   24   59 1
  53   24   60 1
  54   25   26 ar
  55   25   29 ar
  56   25   61 1
  57   26   27 ar
  58   26   30 1
  59   27   28 ar
  60   27   62 1
  61   28   63 1
  62   29   64 1
  63   30   31 am
  64   30   32 2
  65   31   33 1
  66   31   34 1
  67   33   65 1
  68   33   66 1
  69   33   67 1
  70   34   68 1
  71   34   69 1
  72   34   70 1

#	End of record

