#	Name: ASD01670058
#	Creating user name:	WinNT
#	Creation time:	15. 06. 2019 19:22

#	Modifying user name:	WinNT
#	Modification time:	15. 06. 2019 19:22

#	Program:	/corina/corina34_cracker 3.40 0067  02.08.2006

@<TRIPOS>MOLECULE
ASD01670058
  76   79    0    0    0
SMALL
NO_CHARGES


@<TRIPOS>ATOM
   1 C1            -0.1866     0.0202    -0.4230 C.ar    
   2 C2             0.3761    -0.1520     0.8289 C.ar    
   3 C3             0.5912    -0.1062    -1.5557 C.ar    
   4 C4             1.7213    -0.4514     0.9544 C.ar    
   5 C5             6.8000    -0.8680     3.7263 C.ar    
   6 C6             1.9472     0.6927    -6.8797 C.ar    
   7 C7             1.6268    -1.6815    -6.8328 C.ar    
   8 C8             7.0226    -0.9934     5.0871 C.ar    
   9 C9             1.1510     0.7807    -8.0052 C.ar    
  10 C10            0.8299    -1.5989    -7.9582 C.ar    
  11 C11            1.9483    -0.4085    -1.4362 C.ar    
  12 C12            5.1548    -2.6164     3.8313 C.ar    
  13 C13            2.1848    -0.5370    -6.2939 C.ar    
  14 C14            2.5100    -0.5805    -0.1698 C.ar    
  15 C15            5.8747    -1.6706     3.0957 C.ar    
  16 C16            6.3184    -1.9280     5.8305 C.ar    
  17 C17            5.3798    -2.7426     5.2092 C.ar    
  18 C18            0.5896    -0.3662    -8.5476 C.ar    
  19 C19            5.0436     2.3886     0.3888 C.2     
  20 C20            5.4152     1.3147     1.0405 C.2     
  21 C21            2.7876    -0.5459    -2.6456 C.2     
  22 C22            4.1631    -3.4769     3.1612 C.2     
  23 C23            6.9758    -2.1151    11.4541 C.2     
  24 C24            5.1910    -4.0147     7.2064 C.3     
  25 C25            5.5733    -2.7247     7.9436 C.3     
  26 C26           -0.7389    -1.5038   -10.1580 C.3     
  27 C27            3.0537    -0.6300    -5.0662 C.3     
  28 C28            3.9749    -0.9062    -0.0313 C.3     
  29 C29            5.6385    -1.5286     1.6141 C.3     
  30 C30            4.4108     0.5440     1.8580 C.3     
  31 C31            6.4105    -1.7773    10.0986 C.3     
  32 C32            6.1472    -3.0677     9.3198 C.3     
  33 N33            2.2221    -0.4938    -3.8678 N.am    
  34 N34            4.3580    -0.8459     1.3855 N.3     
  35 O35            4.5025    -4.5473     2.6970 O.2     
  36 O36            7.1502    -3.2694    11.7653 O.2     
  37 O37            3.9877    -0.7059    -2.5375 O.2     
  38 O38            2.8802    -3.0765     3.0635 O.3     
  39 O39            7.2855    -1.1335    12.3157 O.3     
  40 O40            4.6734    -3.6593     5.9197 O.3     
  41 O41            6.5602    -2.0386     7.1657 O.3     
  42 O42           -0.1944    -0.2823    -9.6545 O.3     
  43 H43           -1.2380     0.2498    -0.5142 H       
  44 H44           -0.2370    -0.0520     1.7123 H       
  45 H45            0.1506     0.0281    -2.5325 H       
  46 H46            2.1547    -0.5840     1.9347 H       
  47 H47            7.3513    -0.1341     3.1572 H       
  48 H48            2.3881     1.5847    -6.4597 H       
  49 H49            1.8139    -2.6408    -6.3734 H       
  50 H50            7.7498    -0.3594     5.5725 H       
  51 H51            0.9654     1.7414    -8.4622 H       
  52 H52            0.3946    -2.4932    -8.3790 H       
  53 H53            5.7634     2.9409    -0.1970 H       
  54 H54            4.0174     2.7216     0.4374 H       
  55 H55            6.4414     0.9816     0.9920 H       
  56 H56            6.0726    -4.6444     7.0861 H       
  57 H57            4.4303    -4.5508     7.7739 H       
  58 H58            4.6927    -2.0930     8.0597 H       
  59 H59            0.0727    -2.1807   -10.4246 H       
  60 H60           -1.3616    -1.9668    -9.3925 H       
  61 H61           -1.3432    -1.2955   -11.0409 H       
  62 H62            3.5582    -1.5961    -5.0504 H       
  63 H63            3.7965     0.1675    -5.0855 H       
  64 H64            4.1622    -1.9087    -0.4161 H       
  65 H65            4.5628    -0.1839    -0.5977 H       
  66 H66            6.4457    -0.9446     1.1718 H       
  67 H67            5.6108    -2.5165     1.1543 H       
  68 H68            4.7069     0.5602     2.9069 H       
  69 H69            3.4274     1.0017     1.7509 H       
  70 H70            5.4760    -1.2296    10.2208 H       
  71 H71            7.1236    -1.1613     9.5507 H       
  72 H72            5.4341    -3.6836     9.8676 H       
  73 H73            7.0817    -3.6153     9.1976 H       
  74 H74            1.2644    -0.3661    -3.9540 H       
  75 H75            2.2665    -3.6747     2.6155 H       
  76 H76            7.6452    -1.3992    13.1730 H       
@<TRIPOS>BOND
   1    1    2 ar
   2    1    3 ar
   3    1   43 1
   4    2    4 ar
   5    2   44 1
   6    3   11 ar
   7    3   45 1
   8    4   14 ar
   9    4   46 1
  10    5    8 ar
  11    5   15 ar
  12    5   47 1
  13    6    9 ar
  14    6   13 ar
  15    6   48 1
  16    7   10 ar
  17    7   13 ar
  18    7   49 1
  19    8   16 ar
  20    8   50 1
  21    9   18 ar
  22    9   51 1
  23   10   18 ar
  24   10   52 1
  25   11   14 ar
  26   11   21 1
  27   12   15 ar
  28   12   17 ar
  29   12   22 1
  30   13   27 1
  31   14   28 1
  32   15   29 1
  33   16   17 ar
  34   16   41 1
  35   17   40 1
  36   18   42 1
  37   19   20 2
  38   19   53 1
  39   19   54 1
  40   20   30 1
  41   20   55 1
  42   21   33 am
  43   21   37 2
  44   22   35 2
  45   22   38 1
  46   23   31 1
  47   23   36 2
  48   23   39 1
  49   24   25 1
  50   24   40 1
  51   24   56 1
  52   24   57 1
  53   25   32 1
  54   25   41 1
  55   25   58 1
  56   26   42 1
  57   26   59 1
  58   26   60 1
  59   26   61 1
  60   27   33 1
  61   27   62 1
  62   27   63 1
  63   28   34 1
  64   28   64 1
  65   28   65 1
  66   29   34 1
  67   29   66 1
  68   29   67 1
  69   30   34 1
  70   30   68 1
  71   30   69 1
  72   31   32 1
  73   31   70 1
  74   31   71 1
  75   32   72 1
  76   32   73 1
  77   33   74 1
  78   38   75 1
  79   39   76 1

#	End of record

