#	Name: ASD05250073
#	Creating user name:	WinNT
#	Creation time:	15. 06. 2019 20:58

#	Modifying user name:	WinNT
#	Modification time:	15. 06. 2019 20:58

#	Program:	/corina/corina34_cracker 3.40 0067  02.08.2006

@<TRIPOS>MOLECULE
ASD05250073
  34   35    0    0    0
SMALL
NO_CHARGES


@<TRIPOS>ATOM
   1 C1             0.4026     1.1649    -0.5705 C.ar    
   2 C2             0.2286    -0.2082    -0.4743 C.ar    
   3 C3            -0.9982    -0.7317    -0.0909 C.ar    
   4 C4            -2.0549     0.1149     0.1976 C.ar    
   5 C5            -1.8847     1.4982     0.1027 C.ar    
   6 C6            -0.6465     2.0203    -0.2781 C.ar    
   7 O7             1.6062     1.6715    -0.9469 O.3     
   8 O8            -1.1627    -2.0779     0.0011 O.3     
   9 C9            -3.0066     2.4040     0.4083 C.2     
  10 C10           -2.8405     3.7332     0.3164 C.2     
  11 C11           -3.9620     4.6386     0.6219 C.ar    
  12 C12           -3.7916     6.0227     0.5269 C.ar    
  13 C13           -4.8435     6.8655     0.8132 C.ar    
  14 C14           -6.0718     6.3416     1.1957 C.ar    
  15 C15           -6.2460     4.9669     1.2915 C.ar    
  16 C16           -5.2015     4.1160     1.0021 C.ar    
  17 O17           -7.1059     7.1764     1.4773 O.3     
  18 C18           -0.6359    -2.6842     1.0770 C.2     
  19 O19           -0.1296    -2.0254     1.9543 O.2     
  20 C20           -0.6760    -4.1864     1.1904 C.3     
  21 H21            1.0505    -0.8719    -0.6989 H       
  22 H22           -3.0095    -0.2935     0.4952 H       
  23 H23           -0.5099     3.0890    -0.3525 H       
  24 H24            1.7014     1.7910    -1.9018 H       
  25 H25           -3.9622     1.9985     0.7062 H       
  26 H26           -1.8849     4.1387     0.0185 H       
  27 H27           -2.8368     6.4310     0.2300 H       
  28 H28           -4.7127     7.9351     0.7404 H       
  29 H29           -7.2028     4.5641     1.5892 H       
  30 H30           -5.3380     3.0472     1.0765 H       
  31 H31           -7.6573     7.3914     0.7126 H       
  32 H32           -1.1671    -4.6041     0.3115 H       
  33 H33            0.3410    -4.5731     1.2566 H       
  34 H34           -1.2309    -4.4685     2.0851 H       
@<TRIPOS>BOND
   1    1    2 ar
   2    1    7 1
   3    1    6 ar
   4    2    3 ar
   5    2   21 1
   6    3    4 ar
   7    3    8 1
   8    4    5 ar
   9    4   22 1
  10    5    6 ar
  11    5    9 1
  12    6   23 1
  13    7   24 1
  14    8   18 1
  15    9   10 2
  16    9   25 1
  17   10   11 1
  18   10   26 1
  19   11   12 ar
  20   11   16 ar
  21   12   13 ar
  22   12   27 1
  23   13   14 ar
  24   13   28 1
  25   14   15 ar
  26   14   17 1
  27   15   16 ar
  28   15   29 1
  29   16   30 1
  30   17   31 1
  31   18   19 2
  32   18   20 1
  33   20   32 1
  34   20   33 1
  35   20   34 1

#	End of record

