#	Name: ASD05380051
#	Creating user name:	WinNT
#	Creation time:	15. 06. 2019 20:59

#	Modifying user name:	WinNT
#	Modification time:	15. 06. 2019 20:59

#	Program:	/corina/corina34_cracker 3.40 0067  02.08.2006

@<TRIPOS>MOLECULE
ASD05380051
  59   63    0    0    0
SMALL
NO_CHARGES


@<TRIPOS>ATOM
   1 C1            -0.1522     1.5357    -0.4229 C.ar    
   2 C2             0.0168     0.2204     0.0649 C.ar    
   3 C3             0.9436     2.2465    -0.9075 C.ar    
   4 C4             2.1893     1.6574    -0.9067 C.ar    
   5 C5             2.3588     0.3649    -0.4285 C.ar    
   6 C6             1.2890    -0.3543     0.0556 C.ar    
   7 C7             0.7678     3.6494    -1.4291 C.3     
   8 N8            -1.0645    -0.4523     0.5322 N.2     
   9 C9            -2.2474     0.0829     0.5416 C.2     
  10 N10           -2.5022     1.3415     0.0921 N.am    
  11 C11           -1.5032     2.1148    -0.3935 C.2     
  12 C12           -3.8090     1.8434     0.1372 C.ar    
  13 C13           -4.6673     1.6468    -0.9366 C.ar    
  14 C14           -4.2510     2.5335     1.2582 C.ar    
  15 C15           -5.5404     3.0268     1.2998 C.ar    
  16 C16           -6.3911     2.8335     0.2269 C.ar    
  17 C17           -5.9555     2.1425    -0.8889 C.ar    
  18 C18           -3.3967    -0.7317     1.0771 C.3     
  19 N19           -3.2090    -2.1385     0.7142 N.pl3   
  20 C20           -4.3032    -2.9797     0.6166 C.ar    
  21 N21           -5.5301    -2.5267     0.8490 N.ar    
  22 O22           -1.7166     3.2426    -0.7988 O.2     
  23 C23           -4.1409    -4.3306     0.2638 C.ar    
  24 C24           -5.2866    -5.1390     0.1792 C.ar    
  25 N25           -6.4767    -4.6044     0.4334 N.ar    
  26 C26           -6.5852    -3.3261     0.7573 C.ar    
  27 N27           -3.0762    -5.1132    -0.0398 N.2     
  28 C28           -3.4861    -6.3204    -0.2989 C.2     
  29 N29           -4.8434    -6.3875    -0.1772 N.pl3   
  30 C30           -3.4486    -0.6005     2.6005 C.3     
  31 N31           -7.8433    -2.8046     1.0100 N.pl3   
  32 C32           -4.6868    -1.3245     3.1329 C.3     
  33 C33           -4.7387    -1.1934     4.6564 C.3     
  34 N34           -5.9276    -1.8885     5.1675 N.3     
  35 H35            3.0410     2.2055    -1.2816 H       
  36 H36            3.3421    -0.0817    -0.4360 H       
  37 H37            1.4333    -1.3587     0.4256 H       
  38 H38            0.7870     4.3519    -0.5959 H       
  39 H39            1.5770     3.8839    -2.1207 H       
  40 H40           -0.1876     3.7271    -1.9480 H       
  41 H41           -4.3276     1.1072    -1.8083 H       
  42 H42           -3.5873     2.6842     2.0967 H       
  43 H43           -5.8847     3.5636     2.1713 H       
  44 H44           -7.3991     3.2195     0.2621 H       
  45 H45           -6.6221     1.9935    -1.7255 H       
  46 H46           -4.3306    -0.3675     0.6490 H       
  47 H47           -2.3176    -2.4803     0.5422 H       
  48 H48           -2.8465    -7.1471    -0.5705 H       
  49 H49           -5.3940    -7.1739    -0.3165 H       
  50 H50           -2.5530    -1.0455     3.0342 H       
  51 H51           -3.4989     0.4537     2.8730 H       
  52 H52           -7.9417    -1.8697     1.2493 H       
  53 H53           -8.6259    -3.3743     0.9478 H       
  54 H54           -5.5824    -0.8795     2.6992 H       
  55 H55           -4.6365    -2.3787     2.8605 H       
  56 H56           -3.8432    -1.6383     5.0901 H       
  57 H57           -4.7891    -0.1391     4.9288 H       
  58 H58           -5.9367    -2.8536     4.8732 H       
  59 H59           -5.9846    -1.8164     6.1723 H       
@<TRIPOS>BOND
   1    1    2 ar
   2    1    3 ar
   3    1   11 1
   4    2    8 1
   5    2    6 ar
   6    3    4 ar
   7    3    7 1
   8    4    5 ar
   9    4   35 1
  10    5    6 ar
  11    5   36 1
  12    6   37 1
  13    7   38 1
  14    7   39 1
  15    7   40 1
  16    8    9 2
  17    9   10 1
  18    9   18 1
  19   10   11 am
  20   10   12 1
  21   11   22 2
  22   12   13 ar
  23   12   14 ar
  24   13   17 ar
  25   13   41 1
  26   14   15 ar
  27   14   42 1
  28   15   16 ar
  29   15   43 1
  30   16   17 ar
  31   16   44 1
  32   17   45 1
  33   18   19 1
  34   18   30 1
  35   18   46 1
  36   19   20 1
  37   19   47 1
  38   20   21 ar
  39   20   23 ar
  40   21   26 ar
  41   23   24 ar
  42   23   27 1
  43   24   25 ar
  44   24   29 1
  45   25   26 ar
  46   26   31 1
  47   27   28 2
  48   28   29 1
  49   28   48 1
  50   29   49 1
  51   30   32 1
  52   30   50 1
  53   30   51 1
  54   31   52 1
  55   31   53 1
  56   32   33 1
  57   32   54 1
  58   32   55 1
  59   33   34 1
  60   33   56 1
  61   33   57 1
  62   34   58 1
  63   34   59 1

#	End of record

