#	Name: ASD04590290
#	Creating user name:	WinNT
#	Creation time:	15. 06. 2019 20:50

#	Modifying user name:	WinNT
#	Modification time:	15. 06. 2019 20:50

#	Program:	/corina/corina34_cracker 3.40 0067  02.08.2006

@<TRIPOS>MOLECULE
ASD04590290
  40   43    0    0    0
SMALL
NO_CHARGES


@<TRIPOS>ATOM
   1 C1            -0.0167     1.3832     0.0096 C.ar    
   2 C2             0.0021    -0.0041     0.0020 C.ar    
   3 C3             1.1969    -0.6869    -0.0131 C.ar    
   4 C4             2.4020     0.0223    -0.0208 C.ar    
   5 C5             2.3769     1.4283    -0.0131 C.ar    
   6 C6             1.1624     2.0986     0.0022 C.ar    
   7 N7             3.7040    -0.3551    -0.0358 N.2     
   8 C8             4.4709     0.7083    -0.0377 C.2     
   9 N9             3.6969     1.8375    -0.0240 N.pl3   
  10 C10            5.9482     0.6906    -0.0520 C.2     
  11 C11            6.7657    -0.4631    -0.0663 C.2     
  12 C12            8.0579    -0.0539    -0.0769 C.2     
  13 N13            8.0646     1.3050    -0.0697 N.pl3   
  14 N14            6.7360     1.7480    -0.0595 N.2     
  15 N15            6.3189    -1.7943    -0.0690 N.am    
  16 C16            7.2109    -2.8046    -0.0833 C.2     
  17 C17            6.7409    -4.2046    -0.0861 C.ar    
  18 O18            8.4026    -2.5632    -0.0938 O.2     
  19 C19            4.9374    -5.7934    -0.0704 C.ar    
  20 C20            5.8514    -6.8326    -0.0903 C.ar    
  21 C21            7.2119    -6.5668    -0.1029 C.ar    
  22 C22            7.6630    -5.2541    -0.1009 C.ar    
  23 C23            5.3723    -4.4853    -0.0682 C.ar    
  24 O24            8.1046    -7.5922    -0.1225 O.3     
  25 C25            7.5702    -8.9175    -0.1290 C.3     
  26 F26            8.9883    -4.9924    -0.1135 F       
  27 H27           -0.9614     1.9066     0.0170 H       
  28 H28           -0.9283    -0.5525     0.0084 H       
  29 H29            1.2037    -1.7669    -0.0186 H       
  30 H30            1.1403     3.1784     0.0079 H       
  31 H31            4.0155     2.7537    -0.0225 H       
  32 H32            8.9277    -0.6941    -0.0887 H       
  33 H33            8.8529     1.8702    -0.0745 H       
  34 H34            5.3682    -1.9868    -0.0606 H       
  35 H35            3.8790    -6.0082    -0.0606 H       
  36 H36            5.5033    -7.8549    -0.0916 H       
  37 H37            4.6554    -3.6777    -0.0522 H       
  38 H38            6.9677    -9.0708     0.7663 H       
  39 H39            6.9479    -9.0541    -1.0134 H       
  40 H40            8.3874    -9.6387    -0.1448 H       
@<TRIPOS>BOND
   1    1    2 ar
   2    1    6 ar
   3    1   27 1
   4    2    3 ar
   5    2   28 1
   6    3    4 ar
   7    3   29 1
   8    4    5 ar
   9    4    7 1
  10    5    6 ar
  11    5    9 1
  12    6   30 1
  13    7    8 2
  14    8    9 1
  15    8   10 1
  16    9   31 1
  17   10   11 1
  18   10   14 2
  19   11   12 2
  20   11   15 1
  21   12   13 1
  22   12   32 1
  23   13   14 1
  24   13   33 1
  25   15   16 am
  26   15   34 1
  27   16   17 1
  28   16   18 2
  29   17   22 ar
  30   17   23 ar
  31   19   20 ar
  32   19   23 ar
  33   19   35 1
  34   20   21 ar
  35   20   36 1
  36   21   22 ar
  37   21   24 1
  38   22   26 1
  39   23   37 1
  40   24   25 1
  41   25   38 1
  42   25   39 1
  43   25   40 1

#	End of record

