#	Name: ASD01870024
#	Creating user name:	WinNT
#	Creation time:	15. 06. 2019 19:38

#	Modifying user name:	WinNT
#	Modification time:	15. 06. 2019 19:38

#	Program:	/corina/corina34_cracker 3.40 0067  02.08.2006

@<TRIPOS>MOLECULE
ASD01870024
  43   45    0    0    0
SMALL
NO_CHARGES


@<TRIPOS>ATOM
   1 C1            -0.0064     1.3718     0.0135 C.ar    
   2 C2            -1.2256     2.0459    -0.0145 C.ar    
   3 C3            -2.4186     1.3353    -0.0094 C.ar    
   4 C4            -2.3998    -0.0496     0.0238 C.ar    
   5 C5            -1.1698    -0.7297     0.0516 C.ar    
   6 C6             0.0252    -0.0030     0.0404 C.ar    
   7 C7             1.2829     2.1521     0.0082 C.3     
   8 C8             1.6397     2.5574     1.4397 C.3     
   9 N9            -1.2478     3.4373    -0.0474 N.pl3   
  10 C10           -1.1404    -2.1610     0.0864 C.1     
  11 N11           -1.1172    -3.2964     0.1140 N.1     
  12 N12           -3.5927    -0.7639     0.0300 N.3     
  13 C13           -3.7558    -1.5162    -1.2033 C.3     
  14 C14           -4.7980    -2.6258    -1.0315 C.3     
  15 C15           -6.1702    -2.0301    -1.2693 C.ar    
  16 C16           -6.6965    -1.1424    -0.3635 C.ar    
  17 C17           -5.9033    -0.7633     0.8699 C.3     
  18 C18           -4.7048     0.0826     0.4301 C.3     
  19 C19           -6.8870    -2.3834    -2.3977 C.ar    
  20 C20           -8.1397    -1.8369    -2.6106 C.ar    
  21 C21           -8.6694    -0.9426    -1.6988 C.ar    
  22 C22           -7.9481    -0.5927    -0.5717 C.ar    
  23 H23           -3.3611     1.8621    -0.0308 H       
  24 H24            0.9725    -0.5212     0.0617 H       
  25 H25            2.0802     1.5335    -0.4038 H       
  26 H26            1.1639     3.0463    -0.6036 H       
  27 H27            2.5722     3.1217     1.4358 H       
  28 H28            0.8424     3.1760     1.8516 H       
  29 H29            1.7587     1.6632     2.0515 H       
  30 H30           -0.4156     3.9357    -0.0507 H       
  31 H31           -2.0954     3.9085    -0.0670 H       
  32 H32           -4.0788    -0.8406    -1.9953 H       
  33 H33           -2.8004    -1.9616    -1.4805 H       
  34 H34           -4.6119    -3.4199    -1.7546 H       
  35 H35           -4.7426    -3.0287    -0.0202 H       
  36 H36           -6.5317    -0.1856     1.5477 H       
  37 H37           -5.5520    -1.6647     1.3722 H       
  38 H38           -4.3916     0.7185     1.2582 H       
  39 H39           -4.9984     0.7100    -0.4115 H       
  40 H40           -6.4712    -3.0819    -3.1088 H       
  41 H41           -8.7044    -2.1086    -3.4901 H       
  42 H42           -9.6474    -0.5164    -1.8672 H       
  43 H43           -8.3603     0.1054     0.1419 H       
@<TRIPOS>BOND
   1    1    2 ar
   2    1    7 1
   3    1    6 ar
   4    2    3 ar
   5    2    9 1
   6    3    4 ar
   7    3   23 1
   8    4    5 ar
   9    4   12 1
  10    5    6 ar
  11    5   10 1
  12    6   24 1
  13    7    8 1
  14    7   25 1
  15    7   26 1
  16    8   27 1
  17    8   28 1
  18    8   29 1
  19    9   30 1
  20    9   31 1
  21   10   11 3
  22   12   13 1
  23   12   18 1
  24   13   14 1
  25   13   32 1
  26   13   33 1
  27   14   15 1
  28   14   34 1
  29   14   35 1
  30   15   16 ar
  31   15   19 ar
  32   16   17 1
  33   16   22 ar
  34   17   18 1
  35   17   36 1
  36   17   37 1
  37   18   38 1
  38   18   39 1
  39   19   20 ar
  40   19   40 1
  41   20   21 ar
  42   20   41 1
  43   21   22 ar
  44   21   42 1
  45   22   43 1

#	End of record

