#	Name: ASD03910016
#	Creating user name:	WinNT
#	Creation time:	15. 06. 2019 20:47

#	Modifying user name:	WinNT
#	Modification time:	15. 06. 2019 20:47

#	Program:	/corina/corina34_cracker 3.40 0067  02.08.2006

@<TRIPOS>MOLECULE
ASD03910016
  56   59    0    0    0
SMALL
NO_CHARGES


@<TRIPOS>ATOM
   1 C1             0.0146    -0.1884     1.2169 C.ar    
   2 C2             0.0679    -1.2611     0.3459 C.ar    
   3 C3            -1.0099    -1.5357    -0.4805 C.ar    
   4 C4            -2.1385    -0.7432    -0.4394 C.ar    
   5 C5            -2.1951     0.3349     0.4344 C.ar    
   6 C6            -1.1135     0.6119     1.2581 C.ar    
   7 C7             1.3059    -0.1025     2.0023 C.3     
   8 C8             1.9729    -1.4843     1.8354 C.3     
   9 C9             1.3989    -1.9687     0.4871 C.3     
  10 N10           -3.3370     1.1423     0.4800 N.am    
  11 C11           -4.5565     0.5950     0.3080 C.2     
  12 C12           -5.7918     1.4455     0.4563 C.3     
  13 O13           -4.6599    -0.5819     0.0337 O.2     
  14 C14           -7.0157     0.5998     0.2155 C.ar    
  15 C15           -7.6206    -0.0554     1.2721 C.ar    
  16 C16           -8.7427    -0.8312     1.0540 C.ar    
  17 C17           -9.2625    -0.9525    -0.2265 C.ar    
  18 C18           -8.6537    -0.2940    -1.2850 C.ar    
  19 C19           -7.5352     0.4851    -1.0607 C.ar    
  20 O20          -10.3660    -1.7154    -0.4437 O.3     
  21 C21          -10.8966    -1.7258    -1.7704 C.3     
  22 C22           -9.8698    -2.2653    -2.7325 C.2     
  23 C23          -12.1708    -2.5870    -1.8218 C.3     
  24 C24          -13.3160    -1.6535    -2.2654 C.3     
  25 C25          -12.8273    -0.2380    -1.8694 C.3     
  26 C26          -11.3109    -0.2988    -2.1851 C.3     
  27 C27          -11.9967    -3.7206    -2.8344 C.3     
  28 O28           -9.8197    -1.8417    -3.8630 O.2     
  29 O29           -9.0108    -3.2164    -2.3336 O.3     
  30 H30           -0.9662    -2.3738    -1.1603 H       
  31 H31           -2.9762    -0.9605    -1.0855 H       
  32 H32           -1.1552     1.4497     1.9384 H       
  33 H33            1.9464     0.6786     1.5928 H       
  34 H34            1.0966     0.0918     3.0542 H       
  35 H35            3.0573    -1.3872     1.7823 H       
  36 H36            1.6820    -2.1551     2.6437 H       
  37 H37            1.2531    -3.0487     0.5043 H       
  38 H38            2.0644    -1.6890    -0.3296 H       
  39 H39           -3.2508     2.0959     0.6355 H       
  40 H40           -5.8289     1.8598     1.4638 H       
  41 H41           -5.7629     2.2579    -0.2698 H       
  42 H42           -7.2154     0.0391     2.2687 H       
  43 H43           -9.2146    -1.3431     1.8796 H       
  44 H44           -9.0565    -0.3869    -2.2828 H       
  45 H45           -7.0608     0.9979    -1.8844 H       
  46 H46          -12.3844    -2.9970    -0.8347 H       
  47 H47          -13.4650    -1.7180    -3.3432 H       
  48 H48          -14.2365    -1.9010    -1.7366 H       
  49 H49          -13.3177     0.5236    -2.4757 H       
  50 H50          -12.9940    -0.0547    -0.8079 H       
  51 H51          -10.7689     0.4421    -1.5974 H       
  52 H52          -11.1364    -0.1445    -3.2499 H       
  53 H53          -11.1140    -4.3059    -2.5764 H       
  54 H54          -12.8770    -4.3632    -2.8154 H       
  55 H55          -11.8750    -3.3005    -3.8328 H       
  56 H56           -8.3703    -3.5312    -2.9861 H       
@<TRIPOS>BOND
   1    1    2 ar
   2    1    7 1
   3    1    6 ar
   4    2    3 ar
   5    2    9 1
   6    3    4 ar
   7    3   30 1
   8    4    5 ar
   9    4   31 1
  10    5    6 ar
  11    5   10 1
  12    6   32 1
  13    7    8 1
  14    7   33 1
  15    7   34 1
  16    8    9 1
  17    8   35 1
  18    8   36 1
  19    9   37 1
  20    9   38 1
  21   10   11 am
  22   10   39 1
  23   11   12 1
  24   11   13 2
  25   12   14 1
  26   12   40 1
  27   12   41 1
  28   14   15 ar
  29   14   19 ar
  30   15   16 ar
  31   15   42 1
  32   16   17 ar
  33   16   43 1
  34   17   18 ar
  35   17   20 1
  36   18   19 ar
  37   18   44 1
  38   19   45 1
  39   20   21 1
  40   21   22 1
  41   21   23 1
  42   21   26 1
  43   22   28 2
  44   22   29 1
  45   23   24 1
  46   23   27 1
  47   23   46 1
  48   24   25 1
  49   24   47 1
  50   24   48 1
  51   25   26 1
  52   25   49 1
  53   25   50 1
  54   26   51 1
  55   26   52 1
  56   27   53 1
  57   27   54 1
  58   27   55 1
  59   29   56 1

#	End of record

