#	Name: ASD01903210
#	Creating user name:	WinNT
#	Creation time:	15. 06. 2019 19:54

#	Modifying user name:	WinNT
#	Modification time:	15. 06. 2019 19:54

#	Program:	/corina/corina34_cracker 3.40 0067  02.08.2006

@<TRIPOS>MOLECULE
ASD01903210
  39   41    0    0    0
SMALL
NO_CHARGES


@<TRIPOS>ATOM
   1 S1            -0.0269     1.6134    -0.3839 S.3     
   2 C2            -0.0290    -0.1377    -0.1965 C.2     
   3 N3             1.1950    -0.5667    -0.1518 N.2     
   4 C4             2.1545     0.3426    -0.2500 C.2     
   5 C5             1.7353     1.6114    -0.3854 C.2     
   6 N6            -1.1616    -0.9337    -0.1097 N.pl3   
   7 C7            -2.4222    -0.3468    -0.0587 C.ar    
   8 C8             3.5951    -0.0172    -0.2130 C.2     
   9 C9             4.6296     0.6118    -0.9375 C.2     
  10 N10            5.7551     0.0193    -0.6450 N.2     
  11 N11            5.4944    -1.0066     0.2718 N.am    
  12 C12            4.1568    -1.0099     0.5308 C.2     
  13 N13           -2.5301     0.9712     0.0076 N.ar    
  14 C14           -3.7062     1.5675     0.0571 C.ar    
  15 C15           -4.8742     0.8319     0.0418 C.ar    
  16 C16           -4.8047    -0.5534    -0.0272 C.ar    
  17 C17           -3.5580    -1.1498    -0.0838 C.ar    
  18 C18            6.4072    -1.8410     0.8077 C.2     
  19 N19            7.7011    -1.7490     0.4418 N.am    
  20 C20            8.6604    -2.7656     0.8805 C.3     
  21 C21            8.1483    -0.6324    -0.3945 C.3     
  22 O22            6.0636    -2.6761     1.6205 O.2     
  23 C23            2.6197     2.8246    -0.5161 C.3     
  24 H24           -1.0749    -1.8995    -0.0846 H       
  25 H25            4.5104     1.4418    -1.6183 H       
  26 H26            3.6366    -1.6811     1.1981 H       
  27 H27           -3.7556     2.6450     0.1107 H       
  28 H28           -5.8323     1.3286     0.0833 H       
  29 H29           -5.7040    -1.1514    -0.0406 H       
  30 H30           -3.4674    -2.2246    -0.1381 H       
  31 H31            8.6990    -3.5698     0.1457 H       
  32 H32            9.6480    -2.3150     0.9783 H       
  33 H33            8.3478    -3.1684     1.8439 H       
  34 H34            7.3327     0.0807    -0.5150 H       
  35 H35            8.9954    -0.1384     0.0815 H       
  36 H36            8.4494    -1.0085    -1.3722 H       
  37 H37            2.8319     3.0077    -1.5695 H       
  38 H38            2.1129     3.6912    -0.0916 H       
  39 H39            3.5541     2.6523     0.0182 H       
@<TRIPOS>BOND
   1    1    2 1
   2    1    5 1
   3    2    3 2
   4    2    6 1
   5    3    4 1
   6    4    5 2
   7    4    8 1
   8    5   23 1
   9    6    7 1
  10    6   24 1
  11    7   13 ar
  12    7   17 ar
  13    8    9 1
  14    8   12 2
  15    9   10 2
  16    9   25 1
  17   10   11 1
  18   11   12 1
  19   11   18 am
  20   12   26 1
  21   13   14 ar
  22   14   15 ar
  23   14   27 1
  24   15   16 ar
  25   15   28 1
  26   16   17 ar
  27   16   29 1
  28   17   30 1
  29   18   19 am
  30   18   22 2
  31   19   20 1
  32   19   21 1
  33   20   31 1
  34   20   32 1
  35   20   33 1
  36   21   34 1
  37   21   35 1
  38   21   36 1
  39   23   37 1
  40   23   38 1
  41   23   39 1

#	End of record

