#	Name: ASD06020039
#	Creating user name:	WinNT
#	Creation time:	15. 06. 2019 21:04

#	Modifying user name:	WinNT
#	Modification time:	15. 06. 2019 21:04

#	Program:	/corina/corina34_cracker 3.40 0067  02.08.2006

@<TRIPOS>MOLECULE
ASD06020039
  38   41    0    0    0
SMALL
NO_CHARGES


@<TRIPOS>ATOM
   1 N1            -0.0167     1.3827     0.0096 N.pl3   
   2 C2             1.6751    -1.7552    -0.1802 C.ar    
   3 N3             1.4512    -0.4570    -0.1513 N.ar    
   4 C4             0.2152     0.0157    -0.0209 C.ar    
   5 C5            -0.8455    -0.8864     0.0853 C.ar    
   6 C6            -0.5628    -2.2377     0.0501 C.ar    
   7 N7             0.6961    -2.6317    -0.0824 N.ar    
   8 C8            -1.6717    -3.2520     0.1613 C.3     
   9 C9             1.0555     2.2707     0.0148 C.ar    
  10 C10            0.8194     3.6466    -0.0675 C.ar    
  11 C11            1.9014     4.5341    -0.0619 C.ar    
  12 C12            3.1988     3.9688     0.0285 C.ar    
  13 C13            3.3382     2.6189     0.1045 C.ar    
  14 N14            2.2910     1.8091     0.1028 N.ar    
  15 S15           -0.6658     4.5837    -0.1859 S.3     
  16 C16            0.2663     6.0751    -0.2184 C.2     
  17 N17            1.5314     5.8129    -0.1451 N.2     
  18 C18           -0.3114     7.4304    -0.3159 C.ar    
  19 C19            0.5262     8.5495    -0.3337 C.ar    
  20 C20           -0.0169     9.8134    -0.4252 C.ar    
  21 C21           -1.3963     9.9758    -0.4993 C.ar    
  22 C22           -2.2329     8.8648    -0.4814 C.ar    
  23 C23           -1.6970     7.5974    -0.3963 C.ar    
  24 Cl24          -2.7418     6.2111    -0.3813 Cl      
  25 Cl25           2.2479     8.3481    -0.2401 Cl      
  26 N26           -1.9415    11.2549    -0.5912 N.pl3   
  27 H27           -0.9260     1.7202     0.0234 H       
  28 H28            2.6888    -2.1107    -0.2916 H       
  29 H29           -1.8615    -0.5361     0.1927 H       
  30 H30           -2.0456    -3.4922    -0.8341 H       
  31 H31           -1.2903    -4.1569     0.6342 H       
  32 H32           -2.4814    -2.8406     0.7640 H       
  33 H33            4.0703     4.6066     0.0366 H       
  34 H34            4.3296     2.1959     0.1727 H       
  35 H35            0.6295    10.6784    -0.4390 H       
  36 H36           -3.3035     8.9948    -0.5387 H       
  37 H37           -1.3592    12.0305    -0.6035 H       
  38 H38           -2.9033    11.3696    -0.6430 H       
@<TRIPOS>BOND
   1    1    4 1
   2    1    9 1
   3    1   27 1
   4    2    3 ar
   5    2    7 ar
   6    2   28 1
   7    3    4 ar
   8    4    5 ar
   9    5    6 ar
  10    5   29 1
  11    6    7 ar
  12    6    8 1
  13    8   30 1
  14    8   31 1
  15    8   32 1
  16    9   10 ar
  17    9   14 ar
  18   10   11 ar
  19   10   15 1
  20   11   12 ar
  21   11   17 1
  22   12   13 ar
  23   12   33 1
  24   13   14 ar
  25   13   34 1
  26   15   16 1
  27   16   17 2
  28   16   18 1
  29   18   19 ar
  30   18   23 ar
  31   19   20 ar
  32   19   25 1
  33   20   21 ar
  34   20   35 1
  35   21   22 ar
  36   21   26 1
  37   22   23 ar
  38   22   36 1
  39   23   24 1
  40   26   37 1
  41   26   38 1

#	End of record

