#	Name: ASD01914127
#	Creating user name:	WinNT
#	Creation time:	15. 06. 2019 20:02

#	Modifying user name:	WinNT
#	Modification time:	15. 06. 2019 20:02

#	Program:	/corina/corina34_cracker 3.40 0067  02.08.2006

@<TRIPOS>MOLECULE
ASD01914127
  48   51    0    0    0
SMALL
NO_CHARGES


@<TRIPOS>ATOM
   1 C1            -3.4192     1.4955     0.9113 C.2     
   2 C2            -2.8691     0.1355     0.8443 C.2     
   3 N3            -3.5280    -0.9712     0.5327 N.2     
   4 C4            -2.6232    -1.9587     0.6014 C.2     
   5 N5            -1.4849    -1.4291     0.9418 N.2     
   6 O6            -1.5978    -0.2296     1.0813 O.3     
   7 C7            -2.8793    -3.4194     0.3332 C.3     
   8 C8            -2.5536    -4.2338     1.5872 C.3     
   9 C9            -2.8445    -5.7135     1.3264 C.3     
  10 C10           -1.9552    -6.2107     0.1825 C.3     
  11 N11           -2.1561    -5.3414    -0.9848 N.am    
  12 C12           -1.9904    -3.8906    -0.8220 C.3     
  13 C13           -0.4882    -6.1594     0.6138 C.3     
  14 C14           -2.4860    -5.8648    -2.1822 C.2     
  15 C15           -2.7665    -4.9731    -3.3261 C.ar    
  16 C16           -1.8664    -3.9596    -3.6617 C.ar    
  17 C17           -2.1330    -3.1303    -4.7300 C.ar    
  18 C18           -3.2925    -3.3011    -5.4708 C.ar    
  19 C19           -4.1899    -4.3056    -5.1417 C.ar    
  20 C20           -3.9300    -5.1444    -4.0792 C.ar    
  21 O21           -2.5528    -7.0707    -2.3208 O.2     
  22 C22           -2.7274     2.6300     1.2346 C.2     
  23 C23           -3.6307     3.6983     1.1778 C.2     
  24 C24           -4.8388     3.1999     0.8257 C.2     
  25 N25           -4.7207     1.8571     0.6546 N.pl3   
  26 C26           -3.3145     5.1447     1.4589 C.3     
  27 F27           -3.5491    -2.4857    -6.5169 F       
  28 H28           -3.9270    -3.5624     0.0684 H       
  29 H29           -1.5000    -4.1095     1.8375 H       
  30 H30           -3.1675    -3.8838     2.4172 H       
  31 H31           -2.6345    -6.2899     2.2274 H       
  32 H32           -3.8924    -5.8354     1.0520 H       
  33 H33           -2.2274    -7.2347    -0.0734 H       
  34 H34           -2.2858    -3.3837    -1.7407 H       
  35 H35           -0.9481    -3.6648    -0.5967 H       
  36 H36           -0.3439    -6.7951     1.4874 H       
  37 H37            0.1428    -6.5136    -0.2014 H       
  38 H38           -0.2183    -5.1331     0.8627 H       
  39 H39           -0.9631    -3.8254    -3.0850 H       
  40 H40           -1.4378    -2.3460    -4.9902 H       
  41 H41           -5.0917    -4.4341    -5.7218 H       
  42 H42           -4.6295    -5.9267    -3.8238 H       
  43 H43           -1.6791     2.6906     1.4871 H       
  44 H44           -5.7445     3.7741     0.6979 H       
  45 H45           -5.4363     1.2536     0.4005 H       
  46 H46           -3.0077     5.6357     0.5354 H       
  47 H47           -4.2005     5.6397     1.8565 H       
  48 H48           -2.5066     5.2049     2.1881 H       
@<TRIPOS>BOND
   1    1    2 1
   2    1   22 2
   3    1   25 1
   4    2    3 2
   5    2    6 1
   6    3    4 1
   7    4    5 2
   8    4    7 1
   9    5    6 1
  10    7    8 1
  11    7   12 1
  12    7   28 1
  13    8    9 1
  14    8   29 1
  15    8   30 1
  16    9   10 1
  17    9   31 1
  18    9   32 1
  19   10   11 1
  20   10   13 1
  21   10   33 1
  22   11   12 1
  23   11   14 am
  24   12   34 1
  25   12   35 1
  26   13   36 1
  27   13   37 1
  28   13   38 1
  29   14   15 1
  30   14   21 2
  31   15   16 ar
  32   15   20 ar
  33   16   17 ar
  34   16   39 1
  35   17   18 ar
  36   17   40 1
  37   18   19 ar
  38   18   27 1
  39   19   20 ar
  40   19   41 1
  41   20   42 1
  42   22   23 1
  43   22   43 1
  44   23   24 2
  45   23   26 1
  46   24   25 1
  47   24   44 1
  48   25   45 1
  49   26   46 1
  50   26   47 1
  51   26   48 1

#	End of record

