#	Name: ASD01910392
#	Creating user name:	WinNT
#	Creation time:	15. 06. 2019 19:55

#	Modifying user name:	WinNT
#	Modification time:	15. 06. 2019 19:55

#	Program:	/corina/corina34_cracker 3.40 0067  02.08.2006

@<TRIPOS>MOLECULE
ASD01910392
  56   59    0    0    0
SMALL
NO_CHARGES


@<TRIPOS>ATOM
   1 C1            -7.2261    -7.8404    -0.6953 C.ar    
   2 C2            -5.8358    -7.5068    -0.6151 C.1     
   3 C3            -4.6960    -7.2334    -0.5493 C.1     
   4 C4            -3.3057    -6.8999    -0.4690 C.ar    
   5 C5            -2.7687    -5.9280    -1.3206 C.ar    
   6 C6            -1.4428    -5.6101    -1.2432 C.ar    
   7 C7            -0.6219    -6.2557    -0.3137 C.ar    
   8 C8            -1.1576    -7.2272     0.5370 C.ar    
   9 C9            -2.4847    -7.5417     0.4650 C.ar    
  10 C10            0.8114    -5.9119    -0.2310 C.2     
  11 O11            1.1630    -4.7502    -0.3026 O.2     
  12 N12            1.7302    -6.8857    -0.0760 N.am    
  13 C13           -7.7657    -8.8106     0.1537 C.ar    
  14 C14           -9.1056    -9.1265     0.0705 C.ar    
  15 C15           -9.9152    -8.4858    -0.8509 C.ar    
  16 C16           -9.3881    -7.5241    -1.6949 C.ar    
  17 C17           -8.0514    -7.1931    -1.6191 C.ar    
  18 C18            1.3160    -8.2839     0.1037 C.3     
  19 C19            2.0305    -9.1479    -0.9403 C.3     
  20 C20            3.5405    -8.9214    -0.8369 C.3     
  21 C21            3.8587    -7.4526    -1.1259 C.3     
  22 C22            3.1651    -6.5702    -0.0896 C.3     
  23 C23            4.0069    -9.2722     0.5525 C.2     
  24 C24            4.2491    -9.7952    -1.8396 C.ar    
  25 C25            4.2049   -11.1709    -1.7107 C.ar    
  26 C26            4.8549   -11.9724    -2.6304 C.ar    
  27 C27            5.5486   -11.3984    -3.6793 C.ar    
  28 C28            5.5920   -10.0228    -3.8087 C.ar    
  29 C29            4.9384    -9.2213    -2.8914 C.ar    
  30 O30            3.2394    -9.7738     1.3384 O.2     
  31 C31            5.4311    -8.9969     0.9613 C.3     
  32 H32           -3.4026    -5.4296    -2.0391 H       
  33 H33           -1.0282    -4.8600    -1.9003 H       
  34 H34           -0.5228    -7.7261     1.2543 H       
  35 H35           -2.8984    -8.2921     1.1223 H       
  36 H36           -7.1349    -9.3120     0.8728 H       
  37 H37           -9.5240    -9.8761     0.7259 H       
  38 H38          -10.9636    -8.7379    -0.9120 H       
  39 H39          -10.0259    -7.0285    -2.4118 H       
  40 H40           -7.6414    -6.4423    -2.2784 H       
  41 H41            1.5882    -8.6199     1.1042 H       
  42 H42            0.2374    -8.3657    -0.0307 H       
  43 H43            1.8069   -10.1989    -0.7574 H       
  44 H44            1.6885    -8.8708    -1.9375 H       
  45 H45            4.9364    -7.2970    -1.0751 H       
  46 H46            3.4995    -7.1915    -2.1213 H       
  47 H47            3.3073    -5.5211    -0.3491 H       
  48 H48            3.5860    -6.7651     0.8968 H       
  49 H49            3.6629   -11.6193    -0.8913 H       
  50 H50            4.8210   -13.0472    -2.5293 H       
  51 H51            6.0570   -12.0246    -4.3975 H       
  52 H52            6.1343    -9.5743    -4.6280 H       
  53 H53            4.9723    -8.1466    -2.9925 H       
  54 H54            5.4854    -8.0293     1.4600 H       
  55 H55            5.7705    -9.7767     1.6431 H       
  56 H56            6.0674    -8.9858     0.0763 H       
@<TRIPOS>BOND
   1    1    2 1
   2    1   13 ar
   3    1   17 ar
   4    2    3 3
   5    3    4 1
   6    4    5 ar
   7    4    9 ar
   8    5    6 ar
   9    5   32 1
  10    6    7 ar
  11    6   33 1
  12    7    8 ar
  13    7   10 1
  14    8    9 ar
  15    8   34 1
  16    9   35 1
  17   10   11 2
  18   10   12 am
  19   12   18 1
  20   12   22 1
  21   13   14 ar
  22   13   36 1
  23   14   15 ar
  24   14   37 1
  25   15   16 ar
  26   15   38 1
  27   16   17 ar
  28   16   39 1
  29   17   40 1
  30   18   19 1
  31   18   41 1
  32   18   42 1
  33   19   20 1
  34   19   43 1
  35   19   44 1
  36   20   21 1
  37   20   23 1
  38   20   24 1
  39   21   22 1
  40   21   45 1
  41   21   46 1
  42   22   47 1
  43   22   48 1
  44   23   30 2
  45   23   31 1
  46   24   25 ar
  47   24   29 ar
  48   25   26 ar
  49   25   49 1
  50   26   27 ar
  51   26   50 1
  52   27   28 ar
  53   27   51 1
  54   28   29 ar
  55   28   52 1
  56   29   53 1
  57   31   54 1
  58   31   55 1
  59   31   56 1

#	End of record

