#	Name: ASD03092569
#	Creating user name:	WinNT
#	Creation time:	15. 06. 2019 20:32

#	Modifying user name:	WinNT
#	Modification time:	15. 06. 2019 20:32

#	Program:	/corina/corina34_cracker 3.40 0067  02.08.2006

@<TRIPOS>MOLECULE
ASD03092569
  41   44    0    0    0
SMALL
NO_CHARGES


@<TRIPOS>ATOM
   1 C1            -0.6061     1.3816    -0.3172 C.3     
   2 O2            -0.4349    -0.0351    -0.2409 O.3     
   3 C3             0.2114    -0.6353    -1.2756 C.ar    
   4 C4             0.6754     0.1259    -2.3385 C.ar    
   5 C5             1.3319    -0.4833    -3.3896 C.ar    
   6 C6             1.5274    -1.8576    -3.3826 C.ar    
   7 C7             1.0629    -2.6189    -2.3187 C.ar    
   8 C8             0.4116    -2.0080    -1.2654 C.ar    
   9 N9             2.1940    -2.4771    -4.4506 N.am    
  10 C10            2.6949    -1.8526    -5.5337 C.2     
  11 O11            2.6403    -0.6547    -5.7401 O.2     
  12 N12            3.2664    -2.7565    -6.3536 N.am    
  13 C13            3.1288    -4.0121    -5.7772 C.ar    
  14 C14            2.4525    -3.8319    -4.5654 C.ar    
  15 N15            2.1967    -4.8907    -3.8080 N.ar    
  16 C16            2.5752    -6.0960    -4.1859 C.ar    
  17 N17            3.2170    -6.3112    -5.3159 N.ar    
  18 C18            3.5076    -5.3049    -6.1429 C.ar    
  19 C19            4.2308    -5.5520    -7.4123 C.ar    
  20 C20            5.3256    -4.7621    -7.7594 C.ar    
  21 C21            5.9955    -4.9967    -8.9429 C.ar    
  22 C22            5.5832    -6.0133    -9.7857 C.ar    
  23 C23            4.4978    -6.8014    -9.4492 C.ar    
  24 C24            3.8222    -6.5811    -8.2634 C.ar    
  25 F25            2.7658    -7.3553    -7.9317 F       
  26 C26            6.3198    -6.2627   -11.0766 C.3     
  27 F27            7.3517    -7.1810   -10.8547 F       
  28 F28            5.4329    -6.7786   -12.0275 F       
  29 F29            6.8588    -5.0599   -11.5458 F       
  30 H30            0.3702     1.8632    -0.3716 H       
  31 H31           -1.1840     1.6303    -1.2073 H       
  32 H32           -1.1351     1.7319     0.5691 H       
  33 H33            0.5229     1.1950    -2.3441 H       
  34 H34            1.6927     0.1094    -4.2172 H       
  35 H35            1.2145    -3.6882    -2.3130 H       
  36 H36            0.0541    -2.5996    -0.4356 H       
  37 H37            3.6991    -2.5634    -7.2000 H       
  38 H38            2.3513    -6.9366    -3.5460 H       
  39 H39            5.6489    -3.9674    -7.1033 H       
  40 H40            6.8437    -4.3848    -9.2120 H       
  41 H41            4.1803    -7.5930   -10.1117 H       
@<TRIPOS>BOND
   1    1    2 1
   2    1   30 1
   3    1   31 1
   4    1   32 1
   5    2    3 1
   6    3    8 ar
   7    3    4 ar
   8    4    5 ar
   9    4   33 1
  10    5    6 ar
  11    5   34 1
  12    6    7 ar
  13    6    9 1
  14    7    8 ar
  15    7   35 1
  16    8   36 1
  17    9   14 1
  18    9   10 am
  19   10   11 2
  20   10   12 am
  21   12   13 1
  22   12   37 1
  23   13   18 ar
  24   13   14 ar
  25   14   15 ar
  26   15   16 ar
  27   16   17 ar
  28   16   38 1
  29   17   18 ar
  30   18   19 1
  31   19   24 ar
  32   19   20 ar
  33   20   21 ar
  34   20   39 1
  35   21   22 ar
  36   21   40 1
  37   22   23 ar
  38   22   26 1
  39   23   24 ar
  40   23   41 1
  41   24   25 1
  42   26   27 1
  43   26   28 1
  44   26   29 1

#	End of record

