#	Name: ASD02398080
#	Creating user name:	WinNT
#	Creation time:	15. 06. 2019 20:20

#	Modifying user name:	WinNT
#	Modification time:	15. 06. 2019 20:20

#	Program:	/corina/corina34_cracker 3.40 0067  02.08.2006

@<TRIPOS>MOLECULE
ASD02398080
  55   56    0    0    0
SMALL
NO_CHARGES


@<TRIPOS>ATOM
   1 C1            -0.0167     1.3833     0.0096 C.ar    
   2 C2             0.0021    -0.0041     0.0020 C.ar    
   3 C3            -1.1853    -0.7097     0.0095 C.ar    
   4 C4            -2.3921    -0.0347     0.0242 C.ar    
   5 C5            -2.4135     1.3476     0.0318 C.ar    
   6 C6            -1.2285     2.0581     0.0306 C.ar    
   7 C7             1.3169    -0.7404    -0.0149 C.3     
   8 C8             1.4199    -1.6239     1.2277 C.3     
   9 C9             0.4550    -2.7749     1.1199 C.2     
  10 C10            0.2032    -3.3268    -0.0621 C.2     
  11 C11            0.8689    -2.8076    -1.2677 C.2     
  12 C12            1.3987    -1.5893    -1.2559 C.2     
  13 C13            2.0829    -1.0554    -2.4879 C.3     
  14 C14            2.0147     0.6627    -4.7205 C.3     
  15 C15           -3.6860    -0.8071     0.0313 C.3     
  16 C16           -4.1047    -1.0727     1.4544 C.2     
  17 O17           -3.4223    -0.6755     2.3690 O.2     
  18 O18           -5.2356    -1.7505     1.7060 O.3     
  19 C19            2.2963    -0.5598    -5.5964 C.3     
  20 C20            3.3378     1.2553    -4.2314 C.3     
  21 C21            1.2570     1.7115    -5.5370 C.3     
  22 S22            1.0106     0.1659    -3.2937 S.o2    
  23 O23           -0.1535    -0.4967    -3.7681 O.2     
  24 O24            0.8685     1.2843    -2.4287 O.2     
  25 O25            1.1501     2.0799     0.0022 O.3     
  26 C26            1.0546     3.5057     0.0108 C.3     
  27 C27           -0.7603    -4.4807    -0.1679 C.3     
  28 F28           -1.2586    -4.7901     1.1021 F       
  29 F29           -1.8194    -4.1280    -1.0112 F       
  30 F30           -0.0973    -5.5951    -0.6931 F       
  31 H31           -1.1711    -1.7896     0.0036 H       
  32 H32           -3.3573     1.8725     0.0432 H       
  33 H33           -1.2458     3.1379     0.0366 H       
  34 H34            2.1351    -0.0202    -0.0160 H       
  35 H35            2.4356    -2.0098     1.3143 H       
  36 H36            1.1817    -1.0335     2.1125 H       
  37 H37           -0.0333    -3.1530     2.0059 H       
  38 H38            0.9268    -3.4151    -2.1588 H       
  39 H39            3.0234    -0.5827    -2.2051 H       
  40 H40            2.2814    -1.8758    -3.1776 H       
  41 H41           -4.4587    -0.2262    -0.4723 H       
  42 H42           -3.5465    -1.7546    -0.4892 H       
  43 H43           -5.4627    -1.8964     2.6345 H       
  44 H44            2.8361    -1.3070    -5.0147 H       
  45 H45            1.3537    -0.9820    -5.9448 H       
  46 H46            2.8996    -0.2613    -6.4537 H       
  47 H47            3.9412     1.5538    -5.0887 H       
  48 H48            3.1372     2.1262    -3.6074 H       
  49 H49            3.8776     0.5081    -3.6497 H       
  50 H50            0.3144     1.2893    -5.8854 H       
  51 H51            1.0564     2.5824    -4.9130 H       
  52 H52            1.8604     2.0100    -6.3943 H       
  53 H53            0.5092     3.8386    -0.8722 H       
  54 H54            0.5262     3.8290     0.9076 H       
  55 H55            2.0556     3.9369     0.0036 H       
@<TRIPOS>BOND
   1    1    2 ar
   2    1   25 1
   3    1    6 ar
   4    2    3 ar
   5    2    7 1
   6    3    4 ar
   7    3   31 1
   8    4    5 ar
   9    4   15 1
  10    5    6 ar
  11    5   32 1
  12    6   33 1
  13    7    8 1
  14    7   12 1
  15    7   34 1
  16    8    9 1
  17    8   35 1
  18    8   36 1
  19    9   10 2
  20    9   37 1
  21   10   11 1
  22   10   27 1
  23   11   12 2
  24   11   38 1
  25   12   13 1
  26   13   22 1
  27   13   39 1
  28   13   40 1
  29   14   19 1
  30   14   20 1
  31   14   21 1
  32   14   22 1
  33   15   16 1
  34   15   41 1
  35   15   42 1
  36   16   17 2
  37   16   18 1
  38   18   43 1
  39   19   44 1
  40   19   45 1
  41   19   46 1
  42   20   47 1
  43   20   48 1
  44   20   49 1
  45   21   50 1
  46   21   51 1
  47   21   52 1
  48   22   23 2
  49   22   24 2
  50   25   26 1
  51   26   53 1
  52   26   54 1
  53   26   55 1
  54   27   28 1
  55   27   29 1
  56   27   30 1

#	End of record

