#	Name: ASD08150501
#	Creating user name:	WinNT
#	Creation time:	15. 06. 2019 21:16

#	Modifying user name:	WinNT
#	Modification time:	15. 06. 2019 21:16

#	Program:	/corina/corina34_cracker 3.40 0067  02.08.2006

@<TRIPOS>MOLECULE
ASD08150501
  49   53    0    0    0
SMALL
NO_CHARGES


@<TRIPOS>ATOM
   1 N1             0.8872     2.9155    -1.6746 N.am    
   2 C2             1.3183     2.2911    -2.7878 C.2     
   3 C3             2.5279     1.5672    -2.7892 C.2     
   4 C4             3.2790     1.4899    -1.6613 C.2     
   5 C5             2.8288     2.1459    -0.4883 C.ar    
   6 C6             3.5700     2.0976     0.7079 C.ar    
   7 N7             3.1527     2.7040     1.7884 N.ar    
   8 C8             2.0066     3.4008     1.8229 C.ar    
   9 C9             1.1966     3.5030     0.6651 C.ar    
  10 C10            1.6199     2.8578    -0.5204 C.ar    
  11 C11           -0.3743     4.8460     1.8945 C.ar    
  12 C12            0.4331     4.7412     3.0359 C.ar    
  13 C13            1.5958     4.0366     3.0060 C.ar    
  14 O14            0.6531     2.3527    -3.8077 O.2     
  15 C15           -0.3147     3.6324    -1.7004 C.ar    
  16 C16           -0.3078     4.9893    -1.9891 C.ar    
  17 C17           -1.5018     5.6966    -2.0142 C.ar    
  18 C18           -2.6997     5.0438    -1.7502 C.ar    
  19 C19           -2.7029     3.6922    -1.4630 C.ar    
  20 C20           -1.5167     2.9846    -1.4425 C.ar    
  21 N21           -1.4992     7.0629    -2.3040 N.pl3   
  22 C22           -3.9966     5.8108    -1.7767 C.3     
  23 C23            0.0035     4.2307     0.7120 C.ar    
  24 C24           -1.6379     5.6203     1.9528 C.ar    
  25 C25           -2.7609     5.1920     1.2508 C.ar    
  26 N26           -3.8860     5.8770     1.2991 N.ar    
  27 C27           -3.9949     6.9892     2.0098 C.ar    
  28 C28           -2.9144     7.4799     2.7382 C.ar    
  29 C29           -1.7193     6.7891     2.7192 C.ar    
  30 N30           -5.2027     7.6755     2.0284 N.pl3   
  31 H31            2.8579     1.0722    -3.6906 H       
  32 H32            4.2062     0.9361    -1.6576 H       
  33 H33            4.5001     1.5493     0.7334 H       
  34 H34            0.1278     5.2270     3.9509 H       
  35 H35            2.2051     3.9653     3.8950 H       
  36 H36            0.6247     5.4944    -2.1936 H       
  37 H37           -3.6352     3.1872    -1.2579 H       
  38 H38           -1.5227     1.9282    -1.2181 H       
  39 H39           -0.6626     7.5181    -2.4878 H       
  40 H40           -2.3340     7.5566    -2.3213 H       
  41 H41           -4.4142     5.7838    -2.7831 H       
  42 H42           -4.7009     5.3579    -1.0788 H       
  43 H43           -3.8128     6.8455    -1.4872 H       
  44 H44           -0.6185     4.3130    -0.1670 H       
  45 H45           -2.7098     4.2892     0.6603 H       
  46 H46           -3.0114     8.3881     3.3146 H       
  47 H47           -0.8650     7.1465     3.2750 H       
  48 H48           -5.9593     7.3394     1.5230 H       
  49 H49           -5.2893     8.4907     2.5468 H       
@<TRIPOS>BOND
   1    1    2 am
   2    1   10 1
   3    1   15 1
   4    2    3 1
   5    2   14 2
   6    3    4 2
   7    3   31 1
   8    4    5 1
   9    4   32 1
  10    5    6 ar
  11    5   10 ar
  12    6    7 ar
  13    6   33 1
  14    7    8 ar
  15    8    9 ar
  16    8   13 ar
  17    9   10 ar
  18    9   23 ar
  19   11   12 ar
  20   11   24 1
  21   11   23 ar
  22   12   13 ar
  23   12   34 1
  24   13   35 1
  25   15   16 ar
  26   15   20 ar
  27   16   17 ar
  28   16   36 1
  29   17   18 ar
  30   17   21 1
  31   18   19 ar
  32   18   22 1
  33   19   20 ar
  34   19   37 1
  35   20   38 1
  36   21   39 1
  37   21   40 1
  38   22   41 1
  39   22   42 1
  40   22   43 1
  41   23   44 1
  42   24   25 ar
  43   24   29 ar
  44   25   26 ar
  45   25   45 1
  46   26   27 ar
  47   27   28 ar
  48   27   30 1
  49   28   29 ar
  50   28   46 1
  51   29   47 1
  52   30   48 1
  53   30   49 1

#	End of record

