#	Name: ASD01917431
#	Creating user name:	WinNT
#	Creation time:	15. 06. 2019 20:09

#	Modifying user name:	WinNT
#	Modification time:	15. 06. 2019 20:09

#	Program:	/corina/corina34_cracker 3.40 0067  02.08.2006

@<TRIPOS>MOLECULE
ASD01917431
  40   42    0    0    0
SMALL
NO_CHARGES


@<TRIPOS>ATOM
   1 C1            -0.0186     1.5352     0.0103 C.3     
   2 C2            -0.0015    -0.0035     0.0090 C.3     
   3 C3             1.0304    -0.4915     1.0276 C.3     
   4 C4             0.7301     0.0908     2.4101 C.3     
   5 C5             0.6816     1.6254     2.3080 C.3     
   6 C6             1.8998     2.0721     1.4671 C.3     
   7 C7             1.4513     2.0144    -0.0044 C.3     
   8 C8            -0.5326     1.9737     1.4070 C.3     
   9 C9            -0.8261     2.1049    -1.1274 C.2     
  10 O10           -0.2997     2.8392    -1.9365 O.2     
  11 N11           -2.1332     1.7984    -1.2458 N.am    
  12 C12           -2.9056     2.4088    -2.2328 C.ar    
  13 C13           -4.2244     2.0102    -2.4202 C.ar    
  14 C14           -4.9798     2.6243    -3.4033 C.ar    
  15 C15           -4.3877     3.6201    -4.1684 C.ar    
  16 C16           -3.0728     3.9656    -3.9277 C.ar    
  17 N17           -2.3785     3.3661    -2.9794 N.ar    
  18 C18           -2.4240     5.0454    -4.7549 C.3     
  19 N19            0.6336     2.2760     3.6242 N.3     
  20 H20           -0.9880    -0.3794     0.2806 H       
  21 H21            0.2671    -0.3644    -0.9838 H       
  22 H22            0.9988    -1.5798     1.0799 H       
  23 H23            2.0253    -0.1771     0.7121 H       
  24 H24           -0.2320    -0.2819     2.7616 H       
  25 H25            1.5139    -0.2037     3.1079 H       
  26 H26            2.1849     3.0902     1.7322 H       
  27 H27            2.7369     1.3935     1.6305 H       
  28 H28            2.0703     1.3077    -0.5572 H       
  29 H29            1.5181     3.0044    -0.4555 H       
  30 H30           -0.7411     3.0434     1.4286 H       
  31 H31           -1.4124     1.3997     1.6977 H       
  32 H32           -2.5365     1.1531    -0.6443 H       
  33 H33           -4.6532     1.2315    -1.8068 H       
  34 H34           -6.0067     2.3353    -3.5719 H       
  35 H35           -4.9497     4.1190    -4.9441 H       
  36 H36           -2.5775     6.0121    -4.2754 H       
  37 H37           -1.3555     4.8467    -4.8382 H       
  38 H38           -2.8698     5.0582    -5.7495 H       
  39 H39            1.4411     2.0320     4.1779 H       
  40 H40            0.5491     3.2770     3.5298 H       
@<TRIPOS>BOND
   1    1    2 1
   2    1    7 1
   3    1    8 1
   4    1    9 1
   5    2    3 1
   6    2   20 1
   7    2   21 1
   8    3    4 1
   9    3   22 1
  10    3   23 1
  11    4    5 1
  12    4   24 1
  13    4   25 1
  14    5    6 1
  15    5    8 1
  16    5   19 1
  17    6    7 1
  18    6   26 1
  19    6   27 1
  20    7   28 1
  21    7   29 1
  22    8   30 1
  23    8   31 1
  24    9   10 2
  25    9   11 am
  26   11   12 1
  27   11   32 1
  28   12   13 ar
  29   12   17 ar
  30   13   14 ar
  31   13   33 1
  32   14   15 ar
  33   14   34 1
  34   15   16 ar
  35   15   35 1
  36   16   17 ar
  37   16   18 1
  38   18   36 1
  39   18   37 1
  40   18   38 1
  41   19   39 1
  42   19   40 1

#	End of record

