#	Name: ASD01900543
#	Creating user name:	WinNT
#	Creation time:	15. 06. 2019 19:52

#	Modifying user name:	WinNT
#	Modification time:	15. 06. 2019 19:52

#	Program:	/corina/corina34_cracker 3.40 0067  02.08.2006

@<TRIPOS>MOLECULE
ASD01900543
  44   47    0    0    0
SMALL
NO_CHARGES


@<TRIPOS>ATOM
   1 C1             0.9924     3.1743     0.7338 C.ar    
   2 C2             2.0628     3.6408     1.4940 C.ar    
   3 C3             3.2626     2.9479     1.4634 C.ar    
   4 C4             3.3504     1.8122     0.6733 C.ar    
   5 C5             2.2454     1.4057    -0.0570 C.ar    
   6 N6             1.1183     2.0820    -0.0098 N.ar    
   7 C7            -0.2987     3.8999     0.7604 C.2     
   8 O8            -0.4210     4.8977     1.4433 O.2     
   9 N9            -1.3378     3.4535     0.0272 N.am    
  10 C10           -2.5850     4.0804     0.1268 C.ar    
  11 C11           -2.6586     5.4549     0.3135 C.ar    
  12 C12           -3.8890     6.0730     0.4113 C.ar    
  13 C13           -5.0528     5.3210     0.3234 C.ar    
  14 C14           -4.9795     3.9471     0.1368 C.ar    
  15 C15           -3.7495     3.3292     0.0332 C.ar    
  16 C16           -8.5461     6.3655     0.5036 C.3     
  17 C17           -9.4376     6.5676    -0.7254 C.3     
  18 C18          -10.2318     7.8654    -0.5480 C.3     
  19 C19           -9.2885     9.0673    -0.4912 C.3     
  20 C20           -8.3602     8.9401     0.7266 C.3     
  21 N21           -7.7588     7.6048     0.6804 N.am    
  22 C22           -6.4732     7.2465     0.7218 C.2     
  23 N23           -6.3033     5.9495     0.4238 N.am    
  24 C24           -7.4842     5.3240     0.2315 C.2     
  25 O25           -5.5646     8.0055     0.9967 O.2     
  26 O26           -7.6571     4.1682    -0.0915 O.2     
  27 H27            1.9591     4.5299     2.0983 H       
  28 H28            4.1101     3.2853     2.0416 H       
  29 H29            4.2714     1.2499     0.6272 H       
  30 H30            2.3103     0.5213    -0.6736 H       
  31 H31           -1.2211     2.6978    -0.5696 H       
  32 H32           -1.7534     6.0398     0.3826 H       
  33 H33           -3.9464     7.1416     0.5565 H       
  34 H34           -5.8849     3.3624     0.0688 H       
  35 H35           -3.6926     2.2611    -0.1165 H       
  36 H36           -9.1359     6.1339     1.3905 H       
  37 H37           -8.8177     6.6375    -1.6192 H       
  38 H38          -10.1260     5.7277    -0.8198 H       
  39 H39          -10.9171     7.9853    -1.3871 H       
  40 H40          -10.8040     7.8132     0.3783 H       
  41 H41           -8.6900     9.1018    -1.4015 H       
  42 H42           -9.8731     9.9834    -0.4074 H       
  43 H43           -7.5800     9.6998     0.6789 H       
  44 H44           -8.9357     9.0558     1.6450 H       
@<TRIPOS>BOND
   1    1    2 ar
   2    1    6 ar
   3    1    7 1
   4    2    3 ar
   5    2   27 1
   6    3    4 ar
   7    3   28 1
   8    4    5 ar
   9    4   29 1
  10    5    6 ar
  11    5   30 1
  12    7    8 2
  13    7    9 am
  14    9   10 1
  15    9   31 1
  16   10   11 ar
  17   10   15 ar
  18   11   12 ar
  19   11   32 1
  20   12   13 ar
  21   12   33 1
  22   13   14 ar
  23   13   23 1
  24   14   15 ar
  25   14   34 1
  26   15   35 1
  27   16   17 1
  28   16   21 1
  29   16   24 1
  30   16   36 1
  31   17   18 1
  32   17   37 1
  33   17   38 1
  34   18   19 1
  35   18   39 1
  36   18   40 1
  37   19   20 1
  38   19   41 1
  39   19   42 1
  40   20   21 1
  41   20   43 1
  42   20   44 1
  43   21   22 am
  44   22   23 am
  45   22   25 2
  46   23   24 am
  47   24   26 2

#	End of record

