#	Name: ASD01001181
#	Creating user name:	WinNT
#	Creation time:	15. 06. 2019 18:55

#	Modifying user name:	WinNT
#	Modification time:	15. 06. 2019 18:55

#	Program:	/corina/corina34_cracker 3.40 0067  02.08.2006

@<TRIPOS>MOLECULE
ASD01001181
  54   57    0    0    0
SMALL
NO_CHARGES


@<TRIPOS>ATOM
   1 C1            -0.0167     1.3795     0.0096 C.ar    
   2 C2             1.2800     2.1472     0.0014 C.3     
   3 C3             1.5859     2.6346    -1.4177 C.3     
   4 N4             1.1636     3.3317     0.8643 N.pl3   
   5 C5             1.5952     1.4575    -2.3893 C.3     
   6 C6             2.9368     3.3459    -1.4238 C.3     
   7 C7             2.1004     4.3626     0.7308 C.ar    
   8 C8             2.7652     0.5269    -2.0566 C.3     
   9 C9             2.9644     4.4074    -0.3523 C.ar    
  10 O10            3.9836     2.4073    -1.1642 O.3     
  11 C11            2.1571     5.3538     1.7048 C.ar    
  12 C12            4.0660     1.3346    -2.1029 C.3     
  13 C13            3.8761     5.4430    -0.4599 C.ar    
  14 C14            3.0704     6.3829     1.5912 C.ar    
  15 C15            3.9291     6.4275     0.5084 C.ar    
  16 C16            4.9247     7.5519     0.3840 C.3     
  17 C17            4.6656     8.3213    -0.9129 C.3     
  18 C18            4.7767     8.4985     1.5768 C.3     
  19 C19            6.3426     6.9774     0.3616 C.3     
  20 C20            0.0021    -0.0041     0.0020 C.ar    
  21 C21           -1.1812    -0.7131     0.0100 C.ar    
  22 C22           -2.3997    -0.0314     0.0257 C.ar    
  23 C23           -2.4113     1.3648     0.0333 C.ar    
  24 C24           -1.2205     2.0613     0.0306 C.ar    
  25 C25           -3.6708    -0.7840     0.0338 C.2     
  26 O26           -3.6576    -1.9987     0.0268 O.2     
  27 O27           -4.8447    -0.1233     0.0490 O.3     
  28 H28            2.0896     1.5090     0.3555 H       
  29 H29            0.8203     3.3471    -1.7249 H       
  30 H30            0.4482     3.3978     1.5160 H       
  31 H31            0.6580     0.9077    -2.3024 H       
  32 H32            1.7049     1.8287    -3.4082 H       
  33 H33            3.0990     3.8085    -2.3973 H       
  34 H34            2.6288     0.1108    -1.0584 H       
  35 H35            2.8098    -0.2799    -2.7881 H       
  36 H36            1.4860     5.3186     2.5502 H       
  37 H37            4.9054     0.6887    -1.8455 H       
  38 H38            4.2091     1.7378    -3.1055 H       
  39 H39            4.5490     5.4817    -1.3037 H       
  40 H40            3.1139     7.1527     2.3475 H       
  41 H41            3.6555     8.7305    -0.8969 H       
  42 H42            5.3858     9.1345    -1.0029 H       
  43 H43            4.7711     7.6469    -1.7627 H       
  44 H44            4.9612     7.9504     2.5007 H       
  45 H45            5.4968     9.3118     1.4868 H       
  46 H46            3.7666     8.9077     1.5928 H       
  47 H47            6.4481     6.3031    -0.4882 H       
  48 H48            7.0627     7.7907     0.2716 H       
  49 H49            6.5272     6.4293     1.2855 H       
  50 H50            0.9453    -0.5300    -0.0105 H       
  51 H51           -1.1651    -1.7930     0.0037 H       
  52 H52           -3.3503     1.8982     0.0451 H       
  53 H53           -1.2281     3.1412     0.0364 H       
  54 H54           -5.6498    -0.6589     0.0538 H       
@<TRIPOS>BOND
   1    1   20 ar
   2    1    2 1
   3    1   24 ar
   4    2    3 1
   5    2    4 1
   6    2   28 1
   7    3    5 1
   8    3    6 1
   9    3   29 1
  10    4    7 1
  11    4   30 1
  12    5    8 1
  13    5   31 1
  14    5   32 1
  15    6    9 1
  16    6   10 1
  17    6   33 1
  18    7    9 ar
  19    7   11 ar
  20    8   12 1
  21    8   34 1
  22    8   35 1
  23    9   13 ar
  24   10   12 1
  25   11   14 ar
  26   11   36 1
  27   12   37 1
  28   12   38 1
  29   13   15 ar
  30   13   39 1
  31   14   15 ar
  32   14   40 1
  33   15   16 1
  34   16   17 1
  35   16   18 1
  36   16   19 1
  37   17   41 1
  38   17   42 1
  39   17   43 1
  40   18   44 1
  41   18   45 1
  42   18   46 1
  43   19   47 1
  44   19   48 1
  45   19   49 1
  46   20   21 ar
  47   20   50 1
  48   21   22 ar
  49   21   51 1
  50   22   23 ar
  51   22   25 1
  52   23   24 ar
  53   23   52 1
  54   24   53 1
  55   25   26 2
  56   25   27 1
  57   27   54 1

#	End of record

