#	Name: ASD01028514
#	Creating user name:	WinNT
#	Creation time:	15. 06. 2019 18:57

#	Modifying user name:	WinNT
#	Modification time:	15. 06. 2019 18:57

#	Program:	/corina/corina34_cracker 3.40 0067  02.08.2006

@<TRIPOS>MOLECULE
ASD01028514
  37   40    0    0    0
SMALL
NO_CHARGES


@<TRIPOS>ATOM
   1 C1            -0.0184     1.5028     0.0103 C.ar    
   2 C2             0.0021    -0.0041     0.0020 C.3     
   3 C3             0.0225    -0.5140     1.4200 C.2     
   4 N4            -1.0572    -0.7986     2.1804 N.pl3   
   5 C5            -0.5662    -1.2293     3.3901 C.2     
   6 N6             0.7533    -1.1855     3.3051 N.2     
   7 N7             1.0902    -0.7665     2.1353 N.2     
   8 N8            -2.4356    -0.7354     1.9668 N.2     
   9 C9            -3.2743    -1.0858     2.9168 C.2     
  10 C10           -2.8012    -1.5317     4.1693 C.2     
  11 C11           -1.4650    -1.6043     4.4067 C.2     
  12 C12           -4.7349    -1.0112     2.6693 C.ar    
  13 C13           -5.2133    -0.5719     1.4361 C.ar    
  14 C14           -6.5725    -0.5041     1.2102 C.ar    
  15 C15           -7.4618    -0.8715     2.2073 C.ar    
  16 C16           -6.9906    -1.3088     3.4348 C.ar    
  17 C17           -5.6330    -1.3857     3.6672 C.ar    
  18 C18            1.1702     2.2092     0.0027 C.ar    
  19 C19           -1.2257     2.1766     0.0197 C.ar    
  20 C20           -1.2471     3.5578     0.0268 C.ar    
  21 C21           -0.0559     4.2689     0.0246 C.ar    
  22 C22            1.1542     3.5905     0.0103 C.ar    
  23 O23           -0.0743     5.6278     0.0312 O.3     
  24 F24           -8.7921    -0.8026     1.9822 F       
  25 H25           -0.8878    -0.3767    -0.5053 H       
  26 H26            0.8920    -0.3525    -0.5222 H       
  27 H27           -3.5021    -1.8156     4.9405 H       
  28 H28           -1.0973    -1.9451     5.3632 H       
  29 H29           -4.5209    -0.2847     0.6586 H       
  30 H30           -6.9441    -0.1637     0.2549 H       
  31 H31           -7.6873    -1.5939     4.2093 H       
  32 H32           -5.2666    -1.7270     4.6241 H       
  33 H33            2.1119     1.6806    -0.0087 H       
  34 H34           -2.1528     1.6226     0.0211 H       
  35 H35           -2.1904     4.0837     0.0338 H       
  36 H36            2.0829     4.1418     0.0086 H       
  37 H37           -0.0755     6.0168     0.9165 H       
@<TRIPOS>BOND
   1    1    2 1
   2    1   18 ar
   3    1   19 ar
   4    2    3 1
   5    2   25 1
   6    2   26 1
   7    3    4 1
   8    3    7 2
   9    4    5 1
  10    4    8 1
  11    5    6 2
  12    5   11 1
  13    6    7 1
  14    8    9 2
  15    9   10 1
  16    9   12 1
  17   10   11 2
  18   10   27 1
  19   11   28 1
  20   12   13 ar
  21   12   17 ar
  22   13   14 ar
  23   13   29 1
  24   14   15 ar
  25   14   30 1
  26   15   16 ar
  27   15   24 1
  28   16   17 ar
  29   16   31 1
  30   17   32 1
  31   18   22 ar
  32   18   33 1
  33   19   20 ar
  34   19   34 1
  35   20   21 ar
  36   20   35 1
  37   21   22 ar
  38   21   23 1
  39   22   36 1
  40   23   37 1

#	End of record

