#	Name: ASD03200074
#	Creating user name:	WinNT
#	Creation time:	15. 06. 2019 20:34

#	Modifying user name:	WinNT
#	Modification time:	15. 06. 2019 20:34

#	Program:	/corina/corina34_cracker 3.40 0067  02.08.2006

@<TRIPOS>MOLECULE
ASD03200074
  30   32    0    0    0
SMALL
NO_CHARGES


@<TRIPOS>ATOM
   1 C1            -0.0178     1.4588     0.0101 C.ar    
   2 C2             1.2069     2.1124    -0.0116 C.ar    
   3 C3             2.3897     1.3583    -0.0264 C.ar    
   4 C4             3.6911     2.0689    -0.0490 C.ar    
   5 C5             3.7270     3.4619    -0.0494 C.ar    
   6 C6             4.9432     4.1194    -0.0647 C.ar    
   7 C7             6.1238     3.3954    -0.0800 C.ar    
   8 C8             6.0925     2.0114    -0.0797 C.ar    
   9 C9             4.8827     1.3455    -0.0640 C.ar    
  10 C10            1.2816    -2.0743     0.0047 C.ar    
  11 C11            0.1126    -2.7705     0.0247 C.ar    
  12 C12           -1.1803    -0.7517     0.0381 C.ar    
  13 N13            2.3847     0.0421    -0.0205 N.ar    
  14 C14           -1.2903     2.2104     0.0202 C.2     
  15 O15           -2.3467     1.6171    -0.0644 O.2     
  16 C16            1.2555    -0.6670    -0.0001 C.ar    
  17 C17           -1.1161    -2.1136     0.0407 C.ar    
  18 C18            0.0022    -0.0041     0.0162 C.ar    
  19 F19            4.9799     5.4699    -0.0651 F       
  20 O20           -1.2785     3.5536     0.1234 O.3     
  21 Cl21           7.5767     1.1113    -0.0996 Cl      
  22 H22            1.2485     3.1916    -0.0174 H       
  23 H23            2.8066     4.0269    -0.0381 H       
  24 H24            7.0720     3.9123    -0.0927 H       
  25 H25            4.8598     0.2657    -0.0596 H       
  26 H26            2.2253    -2.5992    -0.0072 H       
  27 H27            0.1375    -3.8503     0.0279 H       
  28 H28           -2.1382    -0.2530     0.0502 H       
  29 H29           -2.0290    -2.6904     0.0550 H       
  30 H30           -2.1356     4.0013     0.1258 H       
@<TRIPOS>BOND
   1    1   18 ar
   2    1    2 ar
   3    1   14 1
   4    2    3 ar
   5    2   22 1
   6    3   13 ar
   7    3    4 1
   8    4    9 ar
   9    4    5 ar
  10    5   23 1
  11    5    6 ar
  12    6    7 ar
  13    6   19 1
  14    7    8 ar
  15    7   24 1
  16    8   21 1
  17    8    9 ar
  18    9   25 1
  19   10   11 ar
  20   10   26 1
  21   10   16 ar
  22   11   27 1
  23   11   17 ar
  24   12   17 ar
  25   12   28 1
  26   12   18 ar
  27   13   16 ar
  28   14   20 1
  29   14   15 2
  30   16   18 ar
  31   17   29 1
  32   20   30 1

#	End of record

