#	Name: ASD01152443
#	Creating user name:	WinNT
#	Creation time:	15. 06. 2019 19:05

#	Modifying user name:	WinNT
#	Modification time:	15. 06. 2019 19:05

#	Program:	/corina/corina34_cracker 3.40 0067  02.08.2006

@<TRIPOS>MOLECULE
ASD01152443
  51   53    0    0    0
SMALL
NO_CHARGES


@<TRIPOS>ATOM
   1 C1            -0.0412     1.3652     0.1758 C.2     
   2 N2            -0.0827     0.1111    -0.1900 N.2     
   3 N3            -1.1011    -0.7209     0.2898 N.am    
   4 C4            -2.0430    -0.2493     1.1256 C.2     
   5 N5            -2.0364     1.0356     1.5267 N.am    
   6 C6            -1.0711     1.8734     1.0946 C.2     
   7 C7            -3.0750     1.5233     2.4375 C.3     
   8 O8            -1.0581     3.0364     1.4530 O.2     
   9 C9            -1.1398    -2.0626    -0.1064 C.2     
  10 O10           -2.9156    -0.9960     1.5255 O.2     
  11 C11           -2.6204     1.3391     3.8624 C.ar    
  12 C12           -1.9157     2.3441     4.4983 C.ar    
  13 C13           -2.9132     0.1674     4.5351 C.ar    
  14 C14           -2.4970    -0.0020     5.8421 C.ar    
  15 C15           -1.7868     1.0012     6.4771 C.ar    
  16 C16           -1.4982     2.1756     5.8050 C.ar    
  17 Cl17          -1.2637     0.7892     8.1188 Cl      
  18 C18           -0.1263    -2.5822    -0.8142 C.2     
  19 C19           -2.2896    -2.9009     0.2527 C.2     
  20 C20           -2.0920    -4.1383     0.7563 C.2     
  21 C21           -0.7899    -4.6995     0.7677 C.2     
  22 C22           -0.6060    -5.9619     1.1902 C.2     
  23 N23            0.6743    -6.4741     1.3027 N.am    
  24 C24            1.8996    -5.6955     1.0874 C.3     
  25 C25            0.9559    -7.7474     1.6287 C.2     
  26 C26            2.4535    -7.9602     1.6495 C.3     
  27 C27            3.0212    -6.7388     0.8876 C.3     
  28 O28            0.1294    -8.6013     1.8716 O.2     
  29 O29            0.9411     2.1849    -0.2809 O.3     
  30 C30            1.9693     1.5867    -1.0727 C.3     
  31 H31           -3.2569     2.5812     2.2480 H       
  32 H32           -3.9947     0.9615     2.2740 H       
  33 H33           -1.6911     3.2611     3.9737 H       
  34 H34           -3.4676    -0.6157     4.0392 H       
  35 H35           -2.7264    -0.9172     6.3677 H       
  36 H36           -0.9435     2.9589     6.3001 H       
  37 H37           -0.2195    -3.5669    -1.2479 H       
  38 H38            0.7832    -2.0160    -0.9505 H       
  39 H39           -3.2938    -2.5282     0.1143 H       
  40 H40           -2.9257    -4.7004     1.1504 H       
  41 H41            0.0540    -4.1124     0.4367 H       
  42 H42           -1.4576    -6.5765     1.4420 H       
  43 H43            1.8000    -5.0737     0.1977 H       
  44 H44            2.1112    -5.0765     1.9593 H       
  45 H45            2.8229    -7.9722     2.6749 H       
  46 H46            2.7143    -8.8868     1.1382 H       
  47 H47            3.1578    -6.9674    -0.1693 H       
  48 H48            3.9550    -6.3992     1.3356 H       
  49 H49            2.6416     2.3617    -1.4409 H       
  50 H50            2.5307     0.8779    -0.4640 H       
  51 H51            1.5200     1.0643    -1.9173 H       
@<TRIPOS>BOND
   1    1    2 2
   2    1   29 1
   3    1    6 1
   4    2    3 1
   5    3    4 am
   6    3    9 1
   7    4    5 am
   8    4   10 2
   9    5    6 am
  10    5    7 1
  11    6    8 2
  12    7   11 1
  13    7   31 1
  14    7   32 1
  15    9   18 2
  16    9   19 1
  17   11   12 ar
  18   11   13 ar
  19   12   16 ar
  20   12   33 1
  21   13   14 ar
  22   13   34 1
  23   14   15 ar
  24   14   35 1
  25   15   16 ar
  26   15   17 1
  27   16   36 1
  28   18   37 1
  29   18   38 1
  30   19   20 2
  31   19   39 1
  32   20   21 1
  33   20   40 1
  34   21   22 2
  35   21   41 1
  36   22   23 1
  37   22   42 1
  38   23   24 1
  39   23   25 am
  40   24   27 1
  41   24   43 1
  42   24   44 1
  43   25   26 1
  44   25   28 2
  45   26   27 1
  46   26   45 1
  47   26   46 1
  48   27   47 1
  49   27   48 1
  50   29   30 1
  51   30   49 1
  52   30   50 1
  53   30   51 1

#	End of record

