#	Name: ASD02198010
#	Creating user name:	WinNT
#	Creation time:	15. 06. 2019 20:18

#	Modifying user name:	WinNT
#	Modification time:	15. 06. 2019 20:18

#	Program:	/corina/corina34_cracker 3.40 0067  02.08.2006

@<TRIPOS>MOLECULE
ASD02198010
  40   42    0    0    0
SMALL
NO_CHARGES


@<TRIPOS>ATOM
   1 C1             0.0625     1.4874     1.7758 C.2     
   2 C2             0.2779     0.1588     1.6753 C.2     
   3 N3            -0.6968    -0.7028     1.2424 N.pl3   
   4 C4            -2.0145    -0.2583     1.2226 C.2     
   5 C5            -2.3337     1.0656     1.2949 C.2     
   6 C6            -1.2519     2.1258     1.3937 C.3     
   7 C7             1.0742     2.3470     2.2435 C.2     
   8 C8             2.4193     1.8247     2.6629 C.3     
   9 C9             2.2626     0.3819     3.1548 C.3     
  10 C10            1.6180    -0.4391     2.0363 C.3     
  11 S11           -3.4629    -1.2378     1.1083 S.3     
  12 C12           -4.4820     0.1937     1.1670 C.2     
  13 C13           -3.6918     1.3126     1.2658 C.2     
  14 C14           -5.8916     0.1931     1.1199 C.2     
  15 O15           -6.5033     1.2460     1.1672 O.2     
  16 N16           -6.5621    -0.9720     1.0226 N.am    
  17 N17           -4.2204     2.5987     1.3321 N.pl3   
  18 C18           -1.6435     3.1535     2.4574 C.3     
  19 C19            3.6365    -0.1992     3.4950 C.3     
  20 C20            1.3684     0.3544     4.3960 C.3     
  21 O21            0.8547     3.5405     2.3094 O.2     
  22 H22           -0.4724    -1.6020     0.9561 H       
  23 H23           -1.1466     2.6261     0.4310 H       
  24 H24            3.1010     1.8482     1.8127 H       
  25 H25            2.8162     2.4434     3.4677 H       
  26 H26            1.4782    -1.4660     2.3743 H       
  27 H27            2.2665    -0.4311     1.1603 H       
  28 H28           -6.0752    -1.8101     0.9850 H       
  29 H29           -7.5316    -0.9724     0.9902 H       
  30 H30           -5.1148     2.7382     1.6805 H       
  31 H31           -3.6942     3.3555     1.0298 H       
  32 H32           -1.5504     2.7058     3.4468 H       
  33 H33           -0.9845     4.0188     2.3867 H       
  34 H34           -2.6747     3.4679     2.2965 H       
  35 H35            4.1011     0.4009     4.2775 H       
  36 H36            3.5207    -1.2251     3.8444 H       
  37 H37            4.2665    -0.1871     2.6056 H       
  38 H38            0.3877     0.7594     4.1463 H       
  39 H39            1.2595    -0.6733     4.7426 H       
  40 H40            1.8208     0.9573     5.1832 H       
@<TRIPOS>BOND
   1    1    2 2
   2    1    7 1
   3    1    6 1
   4    2    3 1
   5    2   10 1
   6    3    4 1
   7    3   22 1
   8    4    5 2
   9    4   11 1
  10    5    6 1
  11    5   13 1
  12    6   18 1
  13    6   23 1
  14    7    8 1
  15    7   21 2
  16    8    9 1
  17    8   24 1
  18    8   25 1
  19    9   10 1
  20    9   19 1
  21    9   20 1
  22   10   26 1
  23   10   27 1
  24   11   12 1
  25   12   13 2
  26   12   14 1
  27   13   17 1
  28   14   15 2
  29   14   16 am
  30   16   28 1
  31   16   29 1
  32   17   30 1
  33   17   31 1
  34   18   32 1
  35   18   33 1
  36   18   34 1
  37   19   35 1
  38   19   36 1
  39   19   37 1
  40   20   38 1
  41   20   39 1
  42   20   40 1

#	End of record

