#	Name: ASD03320173
#	Creating user name:	WinNT
#	Creation time:	15. 06. 2019 20:36

#	Modifying user name:	WinNT
#	Modification time:	15. 06. 2019 20:36

#	Program:	/corina/corina34_cracker 3.40 0067  02.08.2006

@<TRIPOS>MOLECULE
ASD03320173
  37   39    0    0    0
SMALL
NO_CHARGES


@<TRIPOS>ATOM
   1 C1            -0.0183     1.3416    -0.2058 C.ar    
   2 C2             0.0223    -0.0338     0.0333 C.ar    
   3 C3            -1.1471    -0.7658     0.0640 C.ar    
   4 C4            -2.3646    -0.1432    -0.1415 C.ar    
   5 C5            -2.4177     1.2309    -0.3809 C.ar    
   6 C6            -1.2441     1.9753    -0.4074 C.ar    
   7 C7             1.2344     2.1247    -0.2391 C.2     
   8 O8             1.1976     3.3220    -0.4473 O.2     
   9 N9             2.4179     1.5118    -0.0385 N.am    
  10 C10            3.6108     2.2343    -0.1642 C.ar    
  11 C11           -3.7256     1.8970    -0.6017 C.2     
  12 C12            3.6646     3.5621     0.2391 C.ar    
  13 C13            4.8414     4.2737     0.1153 C.ar    
  14 C14            5.9697     3.6628    -0.4122 C.ar    
  15 C15            5.9166     2.3366    -0.8156 C.ar    
  16 C16            4.7422     1.6218    -0.6867 C.ar    
  17 O17            7.1280     4.3644    -0.5341 O.3     
  18 C18            8.2504     3.6727    -1.0853 C.3     
  19 F19            7.9393     3.2333    -2.3766 F       
  20 F20            9.3499     4.5361    -1.1388 F       
  21 F21            8.5609     2.5715    -0.2802 F       
  22 Cl22          -3.8302    -1.0728    -0.1021 Cl      
  23 N23           -4.8936     1.2977    -0.6964 N.2     
  24 N24           -5.8712     2.2794    -0.9029 N.pl3   
  25 C25           -5.2594     3.4829    -0.9295 C.2     
  26 C26           -3.9368     3.2826    -0.7407 C.2     
  27 H27            0.9704    -0.5253     0.1941 H       
  28 H28           -1.1112    -1.8293     0.2489 H       
  29 H29           -1.2808     3.0387    -0.5920 H       
  30 H30            2.4433     0.5701     0.1929 H       
  31 H31            2.7861     4.0380     0.6490 H       
  32 H32            4.8833     5.3064     0.4288 H       
  33 H33            6.7952     1.8618    -1.2268 H       
  34 H34            4.7011     0.5893    -1.0008 H       
  35 H35           -6.8224     2.1220    -1.0087 H       
  36 H36           -5.7429     4.4380    -1.0725 H       
  37 H37           -3.1757     4.0482    -0.7095 H       
@<TRIPOS>BOND
   1    1    2 ar
   2    1    7 1
   3    1    6 ar
   4    2    3 ar
   5    2   27 1
   6    3    4 ar
   7    3   28 1
   8    4    5 ar
   9    4   22 1
  10    5    6 ar
  11    5   11 1
  12    6   29 1
  13    7    8 2
  14    7    9 am
  15    9   10 1
  16    9   30 1
  17   10   12 ar
  18   10   16 ar
  19   11   23 2
  20   11   26 1
  21   12   13 ar
  22   12   31 1
  23   13   14 ar
  24   13   32 1
  25   14   15 ar
  26   14   17 1
  27   15   16 ar
  28   15   33 1
  29   16   34 1
  30   17   18 1
  31   18   19 1
  32   18   20 1
  33   18   21 1
  34   23   24 1
  35   24   25 1
  36   24   35 1
  37   25   26 2
  38   25   36 1
  39   26   37 1

#	End of record

