#	Name: ASD04560062
#	Creating user name:	WinNT
#	Creation time:	15. 06. 2019 20:49

#	Modifying user name:	WinNT
#	Modification time:	15. 06. 2019 20:49

#	Program:	/corina/corina34_cracker 3.40 0067  02.08.2006

@<TRIPOS>MOLECULE
ASD04560062
  61   64    0    0    0
SMALL
NO_CHARGES


@<TRIPOS>ATOM
   1 C1            -0.0173     1.3666     0.0244 C.ar    
   2 C2             0.0010    -0.0041     0.0241 C.ar    
   3 C3             1.2157    -0.6859     0.0136 C.ar    
   4 C4             2.4151     0.0225     0.0039 C.ar    
   5 C5             2.4031     1.3933     0.0042 C.ar    
   6 C6             1.1852     2.0805     0.0143 C.ar    
   7 C7             1.1690     3.5549     0.0141 C.2     
   8 O8             2.2154     4.1746     0.0053 O.2     
   9 N9            -0.0055     4.2159     0.0238 N.am    
  10 C10           -0.0226     5.6108     0.1367 C.ar    
  11 C11           -0.9921     6.3504    -0.5279 C.ar    
  12 C12            0.9079     7.6335     1.0278 C.ar    
  13 C13            0.9265     6.2569     0.9179 C.ar    
  14 F14           -0.0727     9.7160     0.4686 F       
  15 S15            1.2351    -2.4478     0.0132 S.3     
  16 C16           -1.0071     7.7268    -0.4152 C.ar    
  17 C17           -0.0563     8.3694     0.3597 C.ar    
  18 C18            3.0069    -2.8364    -0.0020 C.3     
  19 N19            7.9942    -8.3605    -0.0454 N.am    
  20 C20            8.7469    -8.5241     1.0574 C.2     
  21 C21           10.1308    -8.8348     0.6413 C.ar    
  22 C22           10.1181    -8.8376    -0.7685 C.ar    
  23 C23            8.7270    -8.5285    -1.1609 C.2     
  24 C24           11.3098    -9.0960     1.3201 C.ar    
  25 C25           12.4697    -9.3585     0.6073 C.ar    
  26 C26           12.4574    -9.3608    -0.7745 C.ar    
  27 C27           11.2848    -9.1012    -1.4674 C.ar    
  28 O28            8.3145    -8.4410    -2.2999 O.2     
  29 O29            8.3552    -8.4315     2.2032 O.2     
  30 C30            3.1960    -4.3547    -0.0039 C.3     
  31 C31            4.6905    -4.6824    -0.0167 C.3     
  32 C32            4.8796    -6.2007    -0.0185 C.3     
  33 C33            6.3741    -6.5284    -0.0313 C.3     
  34 C34            6.5632    -8.0467    -0.0331 C.3     
  35 N35           13.7047    -9.6420    -1.5202 N.pl3   
  36 O36           14.7373    -9.8703    -0.9158 O.2     
  37 O37           13.6986    -9.6451    -2.7381 O.2     
  38 H38           -0.9594     1.8947     0.0280 H       
  39 H39           -0.9274    -0.5560     0.0322 H       
  40 H40            3.3553    -0.5088    -0.0035 H       
  41 H41            3.3333     1.9420    -0.0029 H       
  42 H42           -0.8390     3.7249    -0.0474 H       
  43 H43           -1.7336     5.8496    -1.1326 H       
  44 H44            1.6459     8.1363     1.6353 H       
  45 H45            1.6784     5.6833     1.4393 H       
  46 H46           -1.7607     8.3024    -0.9321 H       
  47 H47            3.4643    -2.4122    -0.8959 H       
  48 H48            3.4794    -2.4125     0.8840 H       
  49 H49           11.3255    -9.0948     2.4000 H       
  50 H50           13.3893    -9.5623     1.1357 H       
  51 H51           11.2809    -9.1047    -2.5474 H       
  52 H52            2.7387    -4.7789     0.8900 H       
  53 H53            2.7235    -4.7786    -0.8899 H       
  54 H54            5.1478    -4.2582    -0.9105 H       
  55 H55            5.1630    -4.2585     0.8694 H       
  56 H56            4.4223    -6.6249     0.8753 H       
  57 H57            4.4071    -6.6246    -0.9046 H       
  58 H58            6.8314    -6.1042    -0.9251 H       
  59 H59            6.8466    -6.1045     0.8548 H       
  60 H60            6.0907    -8.4706    -0.9192 H       
  61 H61            6.1059    -8.4709     0.8607 H       
@<TRIPOS>BOND
   1    1    2 ar
   2    1    6 ar
   3    1   38 1
   4    2    3 ar
   5    2   39 1
   6    3    4 ar
   7    3   15 1
   8    4    5 ar
   9    4   40 1
  10    5    6 ar
  11    5   41 1
  12    6    7 1
  13    7    8 2
  14    7    9 am
  15    9   10 1
  16    9   42 1
  17   10   11 ar
  18   10   13 ar
  19   11   16 ar
  20   11   43 1
  21   12   13 ar
  22   12   17 ar
  23   12   44 1
  24   13   45 1
  25   14   17 1
  26   15   18 1
  27   16   17 ar
  28   16   46 1
  29   18   30 1
  30   18   47 1
  31   18   48 1
  32   19   20 am
  33   19   23 am
  34   19   34 1
  35   20   21 1
  36   20   29 2
  37   21   22 ar
  38   21   24 ar
  39   22   23 1
  40   22   27 ar
  41   23   28 2
  42   24   25 ar
  43   24   49 1
  44   25   26 ar
  45   25   50 1
  46   26   27 ar
  47   26   35 1
  48   27   51 1
  49   30   31 1
  50   30   52 1
  51   30   53 1
  52   31   32 1
  53   31   54 1
  54   31   55 1
  55   32   33 1
  56   32   56 1
  57   32   57 1
  58   33   34 1
  59   33   58 1
  60   33   59 1
  61   34   60 1
  62   34   61 1
  63   35   36 2
  64   35   37 2

#	End of record

