#	Name: ASD08178483
#	Creating user name:	WinNT
#	Creation time:	15. 06. 2019 21:19

#	Modifying user name:	WinNT
#	Modification time:	15. 06. 2019 21:19

#	Program:	/corina/corina34_cracker 3.40 0067  02.08.2006

@<TRIPOS>MOLECULE
ASD08178483
  74   77    0    0    0
SMALL
NO_CHARGES


@<TRIPOS>ATOM
   1 N1            -0.6320     2.1889     0.2965 N.am    
   2 C2            -0.4023     0.8141     0.2542 C.ar    
   3 C3             0.8992     0.3244     0.1644 C.ar    
   4 N4            -1.4200    -0.0323     0.3047 N.ar    
   5 N5            -1.2513    -1.3042     0.2689 N.ar    
   6 C6            -0.0559    -1.8535     0.1796 C.ar    
   7 C7             1.0742    -1.0506     0.1259 C.ar    
   8 C8             0.0831    -3.3536     0.1418 C.3     
   9 C9            -0.6141    -3.9612     1.3606 C.3     
  10 C10           -0.4730    -5.4842     1.3223 C.3     
  11 C11           -1.1702    -6.0919     2.5411 C.3     
  12 C12           -1.0312    -7.5920     2.5033 C.2     
  13 N13           -0.0702    -8.2836     3.0284 N.2     
  14 N14           -0.1340    -9.5367     2.8880 N.2     
  15 C15           -1.1480   -10.0195     2.2355 C.2     
  16 S16           -2.1520    -8.7219     1.7426 S.3     
  17 N17           -1.3827   -11.3669     1.9836 N.am    
  18 C18           -0.5166   -12.2971     2.4320 C.2     
  19 C19           -0.8272   -13.7616     2.2587 C.3     
  20 O20            0.5128   -11.9556     2.9749 O.2     
  21 C21           -0.1683   -14.2696     1.0022 C.ar    
  22 C22           -1.8937     2.6623     0.2756 C.2     
  23 C23           -2.1471     4.1391     0.4357 C.3     
  24 O24           -2.8251     1.8997     0.1280 O.2     
  25 C25           -3.6295     4.4038     0.3764 C.ar    
  26 C26           -4.3817     4.3840     1.5367 C.ar    
  27 C27           -4.2348     4.6715    -0.8359 C.ar    
  28 C28           -5.5997     4.9150    -0.8898 C.ar    
  29 C29           -6.3530     4.8890     0.2747 C.ar    
  30 C30           -5.7419     4.6259     1.4856 C.ar    
  31 C31           -0.9317   -14.8071    -0.0226 C.ar    
  32 C32           -0.2826   -15.2617    -1.1605 C.ar    
  33 C33            1.0938   -15.1644    -1.2348 C.ar    
  34 N34            1.7883   -14.6474    -0.2399 N.ar    
  35 C35            1.2043   -14.2002     0.8544 C.ar    
  36 C36           -0.2970   -14.5414     3.4636 C.3     
  37 C37           -1.0665   -14.1255     4.7189 C.3     
  38 O38           -0.6533   -14.9357     5.8212 O.3     
  39 C39           -1.3151   -14.6272     7.0495 C.3     
  40 O40           -6.1975     5.1791    -2.0813 O.3     
  41 C41           -7.6059     5.4202    -2.0612 C.3     
  42 F42           -7.8779     6.5275    -1.2506 F       
  43 F43           -8.0543     5.6732    -3.3621 F       
  44 F44           -8.2642     4.2961    -1.5514 F       
  45 H45            0.1162     2.8043     0.3450 H       
  46 H46            1.7450     0.9948     0.1256 H       
  47 H47            2.0609    -1.4836     0.0523 H       
  48 H48           -0.3762    -3.7382    -0.7688 H       
  49 H49            1.1397    -3.6211     0.1568 H       
  50 H50           -0.1548    -3.5766     2.2712 H       
  51 H51           -1.6707    -3.6938     1.3457 H       
  52 H52           -0.9323    -5.8689     0.4117 H       
  53 H53            0.5836    -5.7517     1.3372 H       
  54 H54           -0.7109    -5.7072     3.4517 H       
  55 H55           -2.2268    -5.8244     2.5261 H       
  56 H56           -2.1697   -11.6373     1.4851 H       
  57 H57           -1.9060   -13.8978     2.1839 H       
  58 H58           -1.7566     4.4727     1.3971 H       
  59 H59           -1.6487     4.6824    -0.3672 H       
  60 H60           -3.9059     4.1788     2.4842 H       
  61 H61           -3.6461     4.6915    -1.7411 H       
  62 H62           -7.4155     5.0786     0.2354 H       
  63 H63           -6.3279     4.6055     2.3926 H       
  64 H64           -2.0064   -14.8707     0.0635 H       
  65 H65           -0.8456   -15.6867    -1.9783 H       
  66 H66            1.6069   -15.5162    -2.1176 H       
  67 H67            1.8061   -13.7833     1.6484 H       
  68 H68           -0.4308   -15.6095     3.2926 H       
  69 H69            0.7627   -14.3250     3.5987 H       
  70 H70           -0.8612   -13.0783     4.9407 H       
  71 H71           -2.1352   -14.2586     4.5507 H       
  72 H72           -0.9462   -15.2853     7.8362 H       
  73 H73           -1.1149   -13.5904     7.3197 H       
  74 H74           -2.3889   -14.7707     6.9297 H       
@<TRIPOS>BOND
   1    1    2 1
   2    1   22 am
   3    1   45 1
   4    2    3 ar
   5    2    4 ar
   6    3    7 ar
   7    3   46 1
   8    4    5 ar
   9    5    6 ar
  10    6    7 ar
  11    6    8 1
  12    7   47 1
  13    8    9 1
  14    8   48 1
  15    8   49 1
  16    9   10 1
  17    9   50 1
  18    9   51 1
  19   10   11 1
  20   10   52 1
  21   10   53 1
  22   11   12 1
  23   11   54 1
  24   11   55 1
  25   12   13 2
  26   12   16 1
  27   13   14 1
  28   14   15 2
  29   15   16 1
  30   15   17 1
  31   17   18 am
  32   17   56 1
  33   18   19 1
  34   18   20 2
  35   19   21 1
  36   19   36 1
  37   19   57 1
  38   21   31 ar
  39   21   35 ar
  40   22   23 1
  41   22   24 2
  42   23   25 1
  43   23   58 1
  44   23   59 1
  45   25   26 ar
  46   25   27 ar
  47   26   30 ar
  48   26   60 1
  49   27   28 ar
  50   27   61 1
  51   28   29 ar
  52   28   40 1
  53   29   30 ar
  54   29   62 1
  55   30   63 1
  56   31   32 ar
  57   31   64 1
  58   32   33 ar
  59   32   65 1
  60   33   34 ar
  61   33   66 1
  62   34   35 ar
  63   35   67 1
  64   36   37 1
  65   36   68 1
  66   36   69 1
  67   37   38 1
  68   37   70 1
  69   37   71 1
  70   38   39 1
  71   39   72 1
  72   39   73 1
  73   39   74 1
  74   40   41 1
  75   41   42 1
  76   41   43 1
  77   41   44 1

#	End of record

