#	Name: ASD01916164
#	Creating user name:	WinNT
#	Creation time:	15. 06. 2019 20:06

#	Modifying user name:	WinNT
#	Modification time:	15. 06. 2019 20:06

#	Program:	/corina/corina34_cracker 3.40 0067  02.08.2006

@<TRIPOS>MOLECULE
ASD01916164
  39   41    0    0    0
SMALL
NO_CHARGES


@<TRIPOS>ATOM
   1 C1            -0.3861     1.7165     0.1127 C.ar    
   2 C2            -0.5129     0.3658     0.3821 C.ar    
   3 N3             0.5339    -0.3600     0.7133 N.ar    
   4 C4             1.7500     0.1663     0.8032 C.ar    
   5 C5             1.9574     1.5180     0.5475 C.ar    
   6 C6             0.8696     2.3124     0.1943 C.ar    
   7 C7            -1.8697    -0.2843     0.2958 C.3     
   8 O8             1.0295     3.6354    -0.0637 O.3     
   9 C9             2.2791     4.1595     0.0410 C.ar    
  10 C10            3.2187     3.9710    -0.9674 C.ar    
  11 N11            4.4244     4.4971    -0.8280 N.ar    
  12 C12            4.7393     5.1911     0.2472 C.ar    
  13 N13            3.8774     5.3916     1.2238 N.ar    
  14 C14            2.6499     4.9030     1.1568 C.ar    
  15 C15            2.8959    -0.6936     1.1798 C.2     
  16 N16            2.7019    -2.0038     1.4293 N.am    
  17 O17            4.0109    -0.2178     1.2637 O.2     
  18 C18            3.7921    -2.8341     1.6799 C.ar    
  19 C19            3.5969    -4.2030     1.8208 C.ar    
  20 C20            4.6883    -5.0173     2.0696 C.ar    
  21 C21            5.9422    -4.4319     2.1695 C.ar    
  22 C22            6.0639    -3.0627     2.0185 C.ar    
  23 N23            5.0053    -2.3124     1.7764 N.ar    
  24 C24           -1.8042    -1.4760    -0.6615 C.3     
  25 Cl25           7.6292    -2.3223     2.1420 Cl      
  26 H26           -1.2512     2.3016    -0.1624 H       
  27 H27            2.9467     1.9446     0.6218 H       
  28 H28           -2.1710    -0.6290     1.2850 H       
  29 H29           -2.5964     0.4392    -0.0738 H       
  30 H30            2.9675     3.4031    -1.8511 H       
  31 H31            5.7325     5.6072     0.3305 H       
  32 H32            1.9485     5.0715     1.9606 H       
  33 H33            1.8031    -2.3687     1.4343 H       
  34 H34            2.6066    -4.6258     1.7374 H       
  35 H35            4.5665    -6.0843     2.1839 H       
  36 H36            6.8140    -5.0392     2.3634 H       
  37 H37           -1.5029    -1.1313    -1.6507 H       
  38 H38           -1.0776    -2.1995    -0.2919 H       
  39 H39           -2.7856    -1.9462    -0.7239 H       
@<TRIPOS>BOND
   1    1    2 ar
   2    1    6 ar
   3    1   26 1
   4    2    3 ar
   5    2    7 1
   6    3    4 ar
   7    4    5 ar
   8    4   15 1
   9    5    6 ar
  10    5   27 1
  11    6    8 1
  12    7   24 1
  13    7   28 1
  14    7   29 1
  15    8    9 1
  16    9   10 ar
  17    9   14 ar
  18   10   11 ar
  19   10   30 1
  20   11   12 ar
  21   12   13 ar
  22   12   31 1
  23   13   14 ar
  24   14   32 1
  25   15   16 am
  26   15   17 2
  27   16   18 1
  28   16   33 1
  29   18   19 ar
  30   18   23 ar
  31   19   20 ar
  32   19   34 1
  33   20   21 ar
  34   20   35 1
  35   21   22 ar
  36   21   36 1
  37   22   23 ar
  38   22   25 1
  39   24   37 1
  40   24   38 1
  41   24   39 1

#	End of record

