#	Name: ASD03331801
#	Creating user name:	WinNT
#	Creation time:	15. 06. 2019 20:39

#	Modifying user name:	WinNT
#	Modification time:	15. 06. 2019 20:39

#	Program:	/corina/corina34_cracker 3.40 0067  02.08.2006

@<TRIPOS>MOLECULE
ASD03331801
  67   70    0    0    0
SMALL
NO_CHARGES


@<TRIPOS>ATOM
   1 C1             0.3121     1.7991     0.1869 C.2     
   2 N2             0.5182     0.5200     0.5967 N.pl3   
   3 C3            -0.6243     0.0922     1.1960 C.2     
   4 N4            -1.5061     1.0667     1.1572 N.2     
   5 C5            -0.9532     2.1365     0.5414 C.2     
   6 C6             1.3526     2.6283    -0.5208 C.3     
   7 N7             2.6598     1.9721    -0.3377 N.3     
   8 C8             2.5884     0.5437    -0.6762 C.3     
   9 C9             1.7763    -0.2029     0.3899 C.3     
  10 C10            3.7023     2.6474    -1.1220 C.3     
  11 C11           -1.6092     3.4327     0.2942 C.2     
  12 O12           -1.0038     4.3225    -0.2723 O.2     
  13 N13           -2.8802     3.6322     0.6959 N.am    
  14 C14           -3.5324     4.9208     0.4501 C.3     
  15 C15           -4.6282     5.1304     1.4631 C.2     
  16 C16           -4.1310     4.9291    -0.9579 C.3     
  17 C17           -5.0872     3.7448    -1.1125 C.3     
  18 C18           -4.8968     6.2351    -1.1787 C.3     
  19 C19           -3.0076     4.8158    -1.9904 C.3     
  20 O20           -5.0826     4.1836     2.0697 O.2     
  21 N21           -5.1034     6.3702     1.6951 N.am    
  22 C22           -6.0902     6.5899     2.7553 C.3     
  23 C23           -0.8395    -1.2442     1.7908 C.ar    
  24 C24            0.2524    -2.0686     2.0700 C.ar    
  25 C25           -2.1343    -1.6803     2.0790 C.ar    
  26 C26           -2.3338    -2.9250     2.6329 C.ar    
  27 C27           -1.2430    -3.7502     2.9062 C.ar    
  28 C28            0.0512    -3.3130     2.6240 C.ar    
  29 C29           -1.4587    -5.0904     3.5032 C.ar    
  30 C30           -0.3707    -5.9175     3.7776 C.ar    
  31 C31           -0.5775    -7.1634     4.3336 C.ar    
  32 C32           -1.8615    -7.5921     4.6187 C.ar    
  33 C33           -2.9450    -6.7758     4.3482 C.ar    
  34 C34           -2.7499    -5.5255     3.7975 C.ar    
  35 H35            1.1159     2.6881    -1.5831 H       
  36 H36            1.3799     3.6299    -0.0918 H       
  37 H37            2.1073     0.4249    -1.6471 H       
  38 H38            3.5961     0.1306    -0.7192 H       
  39 H39            2.3383    -0.2371     1.3232 H       
  40 H40            1.5662    -1.2167     0.0492 H       
  41 H41            3.7842     3.6855    -0.7997 H       
  42 H42            4.6563     2.1431    -0.9686 H       
  43 H43            3.4399     2.6148    -2.1794 H       
  44 H44           -3.3631     2.9225     1.1476 H       
  45 H45           -2.7985     5.7220     0.5377 H       
  46 H46           -5.8876     3.8255    -0.3770 H       
  47 H47           -5.5137     3.7507    -2.1156 H       
  48 H48           -4.5416     2.8144    -0.9552 H       
  49 H49           -4.2189     7.0795    -1.0536 H       
  50 H50           -5.3105     6.2477    -2.1871 H       
  51 H51           -5.7066     6.3087    -0.4528 H       
  52 H52           -2.4620     3.8854    -1.8330 H       
  53 H53           -3.4341     4.8217    -2.9935 H       
  54 H54           -2.3264     5.6595    -1.8802 H       
  55 H55           -4.7920     7.1169     1.1600 H       
  56 H56           -5.6680     6.2863     3.7133 H       
  57 H57           -6.3536     7.6470     2.7931 H       
  58 H58           -6.9832     6.0001     2.5485 H       
  59 H59            1.2544    -1.7303     1.8512 H       
  60 H60           -2.9790    -1.0414     1.8678 H       
  61 H61           -3.3352    -3.2624     2.8562 H       
  62 H62            0.8953    -3.9525     2.8359 H       
  63 H63            0.6321    -5.5840     3.5550 H       
  64 H64            0.2646    -7.8053     4.5463 H       
  65 H65           -2.0186    -8.5680     5.0539 H       
  66 H66           -3.9453    -7.1158     4.5726 H       
  67 H67           -3.5965    -4.8889     3.5871 H       
@<TRIPOS>BOND
   1    1    2 1
   2    1    6 1
   3    1    5 2
   4    2    3 1
   5    2    9 1
   6    3    4 2
   7    3   23 1
   8    4    5 1
   9    5   11 1
  10    6    7 1
  11    6   35 1
  12    6   36 1
  13    7    8 1
  14    7   10 1
  15    8    9 1
  16    8   37 1
  17    8   38 1
  18    9   39 1
  19    9   40 1
  20   10   41 1
  21   10   42 1
  22   10   43 1
  23   11   12 2
  24   11   13 am
  25   13   14 1
  26   13   44 1
  27   14   15 1
  28   14   16 1
  29   14   45 1
  30   15   20 2
  31   15   21 am
  32   16   17 1
  33   16   18 1
  34   16   19 1
  35   17   46 1
  36   17   47 1
  37   17   48 1
  38   18   49 1
  39   18   50 1
  40   18   51 1
  41   19   52 1
  42   19   53 1
  43   19   54 1
  44   21   22 1
  45   21   55 1
  46   22   56 1
  47   22   57 1
  48   22   58 1
  49   23   24 ar
  50   23   25 ar
  51   24   28 ar
  52   24   59 1
  53   25   26 ar
  54   25   60 1
  55   26   27 ar
  56   26   61 1
  57   27   28 ar
  58   27   29 1
  59   28   62 1
  60   29   30 ar
  61   29   34 ar
  62   30   31 ar
  63   30   63 1
  64   31   32 ar
  65   31   64 1
  66   32   33 ar
  67   32   65 1
  68   33   34 ar
  69   33   66 1
  70   34   67 1

#	End of record

