#	Name: ASD04590146
#	Creating user name:	WinNT
#	Creation time:	15. 06. 2019 20:50

#	Modifying user name:	WinNT
#	Modification time:	15. 06. 2019 20:50

#	Program:	/corina/corina34_cracker 3.40 0067  02.08.2006

@<TRIPOS>MOLECULE
ASD04590146
  41   43    0    0    0
SMALL
NO_CHARGES


@<TRIPOS>ATOM
   1 N1            -0.0153     1.2802     0.0091 N.pl3   
   2 N2             0.0021    -0.0041     0.0020 N.2     
   3 C3             1.2455    -0.4441    -0.0122 C.2     
   4 C4             2.0903     0.6960    -0.0142 C.2     
   5 C5             1.2522     1.7668    -0.0004 C.2     
   6 C6             1.6763    -1.8547    -0.0239 C.2     
   7 N7             0.7569    -2.8402    -0.0209 N.am    
   8 O8             2.8610    -2.1285    -0.0362 O.2     
   9 N9             3.4927     0.7146    -0.0266 N.am    
  10 C10            4.1511     1.8906    -0.0267 C.2     
  11 C11            6.3610     1.9138     1.1545 C.ar    
  12 C12            5.6306     1.9101    -0.0398 C.ar    
  13 C13            1.1849    -4.2413    -0.0325 C.3     
  14 C14            0.0891    -5.1161     0.5826 C.3     
  15 C15            0.5156    -6.5842     0.5123 C.3     
  16 N16            0.7408    -6.9632    -0.8884 N.3     
  17 C17            1.8214    -6.1688    -1.4863 C.3     
  18 C18            1.4339    -4.6883    -1.4757 C.3     
  19 C19            7.7424     1.9318     1.0948 C.ar    
  20 N20            8.3700     1.9459    -0.0640 N.ar    
  21 C21            7.7219     1.9427    -1.2116 C.ar    
  22 C22            6.3396     1.9251    -1.2467 C.ar    
  23 O23            3.5295     2.9351    -0.0160 O.2     
  24 Cl24           5.5450     1.9031     2.6867 Cl      
  25 Cl25           5.4966     1.9210    -2.7643 Cl      
  26 H26           -0.8184     1.8242     0.0160 H       
  27 H27            1.5404     2.8076     0.0021 H       
  28 H28           -0.1881    -2.6218    -0.0111 H       
  29 H29            3.9887    -0.1190    -0.0351 H       
  30 H30            2.1027    -4.3466     0.5459 H       
  31 H31           -0.0629    -4.8308     1.6236 H       
  32 H32           -0.8394    -4.9800     0.0281 H       
  33 H33            1.4367    -6.7223     1.0785 H       
  34 H34           -0.2688    -7.2110     0.9366 H       
  35 H35            0.9306    -7.9509    -0.9697 H       
  36 H36            2.7364    -6.3088    -0.9107 H       
  37 H37            1.9855    -6.4939    -2.5137 H       
  38 H38            0.5266    -4.5454    -2.0626 H       
  39 H39            2.2427    -4.0973    -1.9053 H       
  40 H40            8.3150     1.9348     2.0106 H       
  41 H41            8.2780     1.9547    -2.1373 H       
@<TRIPOS>BOND
   1    1    2 1
   2    1    5 1
   3    1   26 1
   4    2    3 2
   5    3    4 1
   6    3    6 1
   7    4    5 2
   8    4    9 1
   9    5   27 1
  10    6    7 am
  11    6    8 2
  12    7   13 1
  13    7   28 1
  14    9   10 am
  15    9   29 1
  16   10   23 2
  17   10   12 1
  18   11   12 ar
  19   11   19 ar
  20   11   24 1
  21   12   22 ar
  22   13   14 1
  23   13   18 1
  24   13   30 1
  25   14   15 1
  26   14   31 1
  27   14   32 1
  28   15   16 1
  29   15   33 1
  30   15   34 1
  31   16   17 1
  32   16   35 1
  33   17   18 1
  34   17   36 1
  35   17   37 1
  36   18   38 1
  37   18   39 1
  38   19   20 ar
  39   19   40 1
  40   20   21 ar
  41   21   22 ar
  42   21   41 1
  43   22   25 1

#	End of record

