#	Name: ASD08070089
#	Creating user name:	WinNT
#	Creation time:	15. 06. 2019 21:14

#	Modifying user name:	WinNT
#	Modification time:	15. 06. 2019 21:14

#	Program:	/corina/corina34_cracker 3.40 0067  02.08.2006

@<TRIPOS>MOLECULE
ASD08070089
  39   39    0    0    0
SMALL
NO_CHARGES


@<TRIPOS>ATOM
   1 C1            -0.0169     1.3931     0.0097 C.ar    
   2 C2             0.0021    -0.0041     0.0020 C.ar    
   3 C3             1.1672     2.0959     0.0022 C.ar    
   4 C4             2.3802     1.4174    -0.0131 C.ar    
   5 C5             2.4034     0.0276    -0.0207 C.ar    
   6 C6             1.2236    -0.6825    -0.0133 C.ar    
   7 C7            -1.2649    -0.7613     0.0105 C.2     
   8 N8            -1.2445    -2.1089     0.0031 N.am    
   9 O9            -2.3268    -0.1694     0.0243 O.2     
  10 C10           -2.5020    -2.8605     0.0116 C.3     
  11 C11           -2.2752    -4.2411    -0.6078 C.3     
  12 C12           -1.9078    -4.0834    -2.0846 C.3     
  13 S13           -1.6388    -5.7202    -2.8189 S.3     
  14 O14           -2.3407    -2.5529     2.3420 O.2     
  15 C15           -2.9826    -3.0196     1.4310 C.2     
  16 O16           -4.1239    -3.6796     1.6831 O.3     
  17 C17           -4.5258    -3.7941     3.0737 C.3     
  18 C18           -1.2208    -5.3313    -4.5407 C.3     
  19 O19            3.5451     2.1136    -0.0209 O.3     
  20 C20            4.7551     1.3536    -0.0365 C.3     
  21 H21           -0.9590     1.9211     0.0170 H       
  22 H22            1.1535     3.1758     0.0077 H       
  23 H23            3.3479    -0.4960    -0.0326 H       
  24 H24            1.2424    -1.7623    -0.0186 H       
  25 H25           -0.3973    -2.5811    -0.0078 H       
  26 H26           -3.2516    -2.3212    -0.5676 H       
  27 H27           -1.4637    -4.7457    -0.0834 H       
  28 H28           -3.1868    -4.8323    -0.5213 H       
  29 H29           -2.7193    -3.5788    -2.6090 H       
  30 H30           -0.9962    -3.4921    -2.1711 H       
  31 H31           -4.6640    -2.7984     3.4951 H       
  32 H32           -5.4621    -4.3486     3.1369 H       
  33 H33           -3.7529    -4.3212     3.6330 H       
  34 H34           -2.0495    -4.7955    -5.0037 H       
  35 H35           -0.3264    -4.7088    -4.5658 H       
  36 H36           -1.0354    -6.2560    -5.0873 H       
  37 H37            4.7981     0.7208     0.8499 H       
  38 H38            4.7808     0.7297    -0.9299 H       
  39 H39            5.6094     2.0306    -0.0414 H       
@<TRIPOS>BOND
   1    1    2 ar
   2    1    3 ar
   3    1   21 1
   4    2    7 1
   5    2    6 ar
   6    3    4 ar
   7    3   22 1
   8    4    5 ar
   9    4   19 1
  10    5    6 ar
  11    5   23 1
  12    6   24 1
  13    7    8 am
  14    7    9 2
  15    8   10 1
  16    8   25 1
  17   10   11 1
  18   10   15 1
  19   10   26 1
  20   11   12 1
  21   11   27 1
  22   11   28 1
  23   12   13 1
  24   12   29 1
  25   12   30 1
  26   13   18 1
  27   14   15 2
  28   15   16 1
  29   16   17 1
  30   17   31 1
  31   17   32 1
  32   17   33 1
  33   18   34 1
  34   18   35 1
  35   18   36 1
  36   19   20 1
  37   20   37 1
  38   20   38 1
  39   20   39 1

#	End of record

