#	Name: ASD00110047
#	Creating user name:	WinNT
#	Creation time:	15. 06. 2019 18:30

#	Modifying user name:	WinNT
#	Modification time:	15. 06. 2019 18:30

#	Program:	/corina/corina34_cracker 3.40 0067  02.08.2006

@<TRIPOS>MOLECULE
ASD00110047
  60   62    0    0    0
SMALL
NO_CHARGES


@<TRIPOS>ATOM
   1 C1            -0.9646     2.2012     2.7406 C.3     
   2 S2            -0.5404     0.4903     2.3123 S.3     
   3 C3            -2.1264    -0.1981     1.7632 C.3     
   4 H4            -2.8943     0.0215     2.5049 H       
   5 O5            -2.4918     0.3865     0.5115 O.3     
   6 C6            -3.7451    -0.0695    -0.0017 C.3     
   7 H7            -3.9583     0.4367    -0.9432 H       
   8 C8            -4.8529     0.2411     1.0068 C.3     
   9 H9            -4.6064    -0.2104     1.9678 H       
  10 N10           -6.1225    -0.3058     0.5216 N.am    
  11 C11           -7.0028    -0.8393     1.3916 C.2     
  12 O12           -6.7880    -0.7815     2.5838 O.2     
  13 C13           -8.2539    -1.5079     0.8829 C.3     
  14 C14           -7.9621    -2.9812     0.5887 C.3     
  15 N15           -9.1932    -3.6397     0.1300 N.3     
  16 C16          -10.2481    -3.5459     1.1489 C.3     
  17 C17          -10.5399    -2.0726     1.4431 C.3     
  18 N18           -9.3088    -1.4141     1.9017 N.3     
  19 C19           -9.5524    -0.0833     2.2490 C.ar    
  20 C20           -9.5244     0.9066     1.2749 C.ar    
  21 C21           -9.7662     2.2214     1.6216 C.ar    
  22 C22          -10.0355     2.5529     2.9368 C.ar    
  23 C23          -10.0643     1.5699     3.9090 C.ar    
  24 C24           -9.8290     0.2524     3.5682 C.ar    
  25 C25           -4.9808     1.7566     1.1732 C.3     
  26 H26           -4.0275     2.1674     1.5057 H       
  27 C27           -6.0599     2.0663     2.2128 C.3     
  28 Cl28          -5.4369     2.4983    -0.4056 Cl      
  29 C29           -3.6787    -1.5806    -0.2382 C.3     
  30 H30           -2.9171    -1.7990    -0.9868 H       
  31 O31           -4.9483    -2.0483    -0.6980 O.3     
  32 C32           -3.3196    -2.2800     1.0764 C.3     
  33 H33           -3.2156    -3.3511     0.9031 H       
  34 O34           -4.3512    -2.0492     2.0380 O.3     
  35 C35           -1.9950    -1.7143     1.5979 C.3     
  36 H36           -1.7596    -2.1667     2.5613 H       
  37 O37           -0.9519    -2.0044     0.6652 O.3     
  38 H38           -0.0720     2.7204     3.0896 H       
  39 H39           -1.3594     2.7089     1.8605 H       
  40 H40           -1.7173     2.2025     3.5290 H       
  41 H41           -6.3295    -0.2838    -0.4258 H       
  42 H42           -8.5851    -1.0131    -0.0301 H       
  43 H43           -7.2004    -3.0530    -0.1877 H       
  44 H44           -7.6047    -3.4693     1.4954 H       
  45 H45           -9.5040    -3.2535    -0.7488 H       
  46 H46          -11.1530    -4.0294     0.7809 H       
  47 H47           -9.9167    -4.0404     2.0620 H       
  48 H48          -10.8973    -1.5845     0.5363 H       
  49 H49          -11.3016    -2.0007     2.2195 H       
  50 H50           -9.3133     0.6485     0.2477 H       
  51 H51           -9.7445     2.9915     0.8648 H       
  52 H52          -10.2236     3.5820     3.2054 H       
  53 H53          -10.2750     1.8322     4.9353 H       
  54 H54           -9.8560    -0.5154     4.3272 H       
  55 H55           -5.8074     1.5794     3.1547 H       
  56 H56           -6.1189     3.1440     2.3652 H       
  57 H57           -7.0221     1.6961     1.8590 H       
  58 H58           -4.9788    -2.9997    -0.8685 H       
  59 H59           -4.1890    -2.4643     2.8962 H       
  60 H60           -0.0838    -1.6704     0.9295 H       
@<TRIPOS>BOND
   1    1    2 1
   2    1   38 1
   3    1   39 1
   4    1   40 1
   5    2    3 1
   6    3    4 1
   7    3   35 1
   8    3    5 1
   9    5    6 1
  10    6    7 1
  11    6    8 1
  12    6   29 1
  13    8    9 1
  14    8   10 1
  15    8   25 1
  16   10   11 am
  17   10   41 1
  18   11   12 2
  19   11   13 1
  20   13   18 1
  21   13   14 1
  22   13   42 1
  23   14   15 1
  24   14   43 1
  25   14   44 1
  26   15   16 1
  27   15   45 1
  28   16   17 1
  29   16   46 1
  30   16   47 1
  31   17   18 1
  32   17   48 1
  33   17   49 1
  34   18   19 1
  35   19   24 ar
  36   19   20 ar
  37   20   21 ar
  38   20   50 1
  39   21   22 ar
  40   21   51 1
  41   22   23 ar
  42   22   52 1
  43   23   24 ar
  44   23   53 1
  45   24   54 1
  46   25   26 1
  47   25   27 1
  48   25   28 1
  49   27   55 1
  50   27   56 1
  51   27   57 1
  52   29   30 1
  53   29   31 1
  54   29   32 1
  55   31   58 1
  56   32   33 1
  57   32   34 1
  58   32   35 1
  59   34   59 1
  60   35   36 1
  61   35   37 1
  62   37   60 1

#	End of record

