#	Name: ASD03331096
#	Creating user name:	WinNT
#	Creation time:	15. 06. 2019 20:38

#	Modifying user name:	WinNT
#	Modification time:	15. 06. 2019 20:38

#	Program:	/corina/corina34_cracker 3.40 0067  02.08.2006

@<TRIPOS>MOLECULE
ASD03331096
  66   68    0    0    0
SMALL
NO_CHARGES


@<TRIPOS>ATOM
   1 N1             0.3600     0.8141     1.0885 N.pl3   
   2 C2             0.0407    -0.4626     0.7454 C.2     
   3 C3             0.9667    -1.4524     0.0882 C.3     
   4 N4             2.2574    -1.4476     0.7944 N.3     
   5 C5             3.1660    -0.4470     0.2318 C.3     
   6 C6             2.3956     0.7754    -0.2592 C.3     
   7 C7             1.6741     1.4400     0.9164 C.3     
   8 C8            -0.7573     1.3845     1.6254 C.2     
   9 N9            -1.7211     0.4935     1.6310 N.2     
  10 C10           -1.2599    -0.6589     1.0967 C.2     
  11 C11           -2.0275    -1.9049     0.9246 C.2     
  12 O12           -1.4990    -2.8810     0.4274 O.2     
  13 N13           -3.3152    -1.9629     1.3182 N.am    
  14 C14           -5.5481    -2.8789     1.0649 C.2     
  15 C15           -4.0784    -3.2017     1.1472 C.3     
  16 C16           -3.8251    -4.1256     2.3401 C.3     
  17 C17           -4.3546    -3.4679     3.6160 C.3     
  18 O18           -5.9479    -1.7833     1.3977 O.2     
  19 C19           -4.5449    -5.4569     2.1160 C.3     
  20 C20           -2.3223    -4.3758     2.4813 C.3     
  21 N21           -6.4182    -3.8078     0.6216 N.am    
  22 C22           -7.8546    -3.5199     0.6106 C.3     
  23 C23           -8.6134    -4.7313     0.0651 C.3     
  24 C24            2.8703    -2.7826     0.7800 C.3     
  25 C25            4.2586    -2.7133     1.4195 C.3     
  26 C26           -0.8643     2.7743     2.1191 C.ar    
  27 C27           -1.9663     3.5599     1.7697 C.ar    
  28 C28           -2.0608     4.8575     2.2345 C.ar    
  29 C29           -1.0658     5.3796     3.0445 C.ar    
  30 C30            0.0298     4.6039     3.3934 C.ar    
  31 C31            0.1316     3.3043     2.9400 C.ar    
  32 F32           -1.1627     6.6492     3.4960 F       
  33 F33           -2.9366     3.0516     0.9790 F       
  34 Cl34           1.2725     5.2670     4.4081 Cl      
  35 H35            0.5285    -2.4493     0.1369 H       
  36 H36            1.1204    -1.1714    -0.9536 H       
  37 H37            3.8773    -0.1381     0.9978 H       
  38 H38            3.7099    -0.8869    -0.6041 H       
  39 H39            3.0905     1.4861    -0.7065 H       
  40 H40            1.6638     0.4667    -1.0057 H       
  41 H41            1.5474     2.5032     0.7123 H       
  42 H42            2.2616     1.3098     1.8253 H       
  43 H43           -3.7367    -1.1844     1.7148 H       
  44 H44           -3.7636    -3.6986     0.2295 H       
  45 H45           -5.4252    -3.2896     3.5154 H       
  46 H46           -4.1742    -4.1261     4.4659 H       
  47 H47           -3.8418    -2.5195     3.7757 H       
  48 H48           -4.0777    -5.9874     1.2863 H       
  49 H49           -4.4771    -6.0632     3.0192 H       
  50 H50           -5.5929    -5.2685     1.8827 H       
  51 H51           -1.8094    -3.4274     2.6410 H       
  52 H52           -2.1418    -5.0341     3.3312 H       
  53 H53           -1.9450    -4.8444     1.5723 H       
  54 H54           -6.0934    -4.6670     0.3099 H       
  55 H55           -8.1904    -3.3076     1.6256 H       
  56 H56           -8.0469    -2.6548    -0.0241 H       
  57 H57           -9.6822    -4.5170     0.0569 H       
  58 H58           -8.2776    -4.9435    -0.9499 H       
  59 H59           -8.4212    -5.5964     0.6998 H       
  60 H60            2.2452    -3.4755     1.3431 H       
  61 H61            2.9613    -3.1295    -0.2493 H       
  62 H62            4.7179    -3.7016     1.3987 H       
  63 H63            4.8803    -2.0119     0.8630 H       
  64 H64            4.1665    -2.3770     2.4522 H       
  65 H65           -2.9116     5.4659     1.9655 H       
  66 H66            0.9829     2.7001     3.2166 H       
@<TRIPOS>BOND
   1    1    2 1
   2    1    7 1
   3    1    8 1
   4    2    3 1
   5    2   10 2
   6    3    4 1
   7    3   35 1
   8    3   36 1
   9    4    5 1
  10    4   24 1
  11    5    6 1
  12    5   37 1
  13    5   38 1
  14    6    7 1
  15    6   39 1
  16    6   40 1
  17    7   41 1
  18    7   42 1
  19    8    9 2
  20    8   26 1
  21    9   10 1
  22   10   11 1
  23   11   12 2
  24   11   13 am
  25   13   15 1
  26   13   43 1
  27   14   18 2
  28   14   21 am
  29   14   15 1
  30   15   16 1
  31   15   44 1
  32   16   17 1
  33   16   19 1
  34   16   20 1
  35   17   45 1
  36   17   46 1
  37   17   47 1
  38   19   48 1
  39   19   49 1
  40   19   50 1
  41   20   51 1
  42   20   52 1
  43   20   53 1
  44   21   22 1
  45   21   54 1
  46   22   23 1
  47   22   55 1
  48   22   56 1
  49   23   57 1
  50   23   58 1
  51   23   59 1
  52   24   25 1
  53   24   60 1
  54   24   61 1
  55   25   62 1
  56   25   63 1
  57   25   64 1
  58   26   27 ar
  59   26   31 ar
  60   27   28 ar
  61   27   33 1
  62   28   29 ar
  63   28   65 1
  64   29   30 ar
  65   29   32 1
  66   30   31 ar
  67   30   34 1
  68   31   66 1

#	End of record

