#	Name: ASD04640017
#	Creating user name:	WinNT
#	Creation time:	15. 06. 2019 20:52

#	Modifying user name:	WinNT
#	Modification time:	15. 06. 2019 20:52

#	Program:	/corina/corina34_cracker 3.40 0067  02.08.2006

@<TRIPOS>MOLECULE
ASD04640017
  39   40    0    0    0
SMALL
NO_CHARGES


@<TRIPOS>ATOM
   1 C1            -0.0167     1.3783     0.0096 C.ar    
   2 C2             0.0021    -0.0041     0.0020 C.ar    
   3 C3             1.2034    -0.6825    -0.0126 C.ar    
   4 C4             2.4063     0.0274    -0.0203 C.ar    
   5 C5             2.3874     1.4223    -0.0131 C.ar    
   6 C6             1.1745     2.0944     0.0021 C.ar    
   7 N7             1.1500     3.4912     0.0093 N.3     
   8 C8            -0.2310     3.9935     0.0248 C.3     
   9 C9            -0.2142     5.5214     0.1126 C.3     
  10 N10            0.5289     6.0672    -1.0317 N.3     
  11 C11            1.9098     5.5648    -1.0472 C.3     
  12 C12            1.8931     4.0369    -1.1350 C.3     
  13 C13            3.6545    -0.6741    -0.0350 C.1     
  14 N14            4.6448    -1.2307    -0.0467 N.1     
  15 C15            0.5030     7.5359    -1.0241 C.3     
  16 C16            1.4825     8.0687    -2.0718 C.3     
  17 C17            1.4556     9.5984    -2.0639 C.3     
  18 C18            2.4351    10.1312    -3.1115 C.3     
  19 H19           -0.9603     1.9036     0.0169 H       
  20 H20           -0.9269    -0.5549     0.0079 H       
  21 H21            1.2137    -1.7624    -0.0178 H       
  22 H22            3.3141     1.9769    -0.0186 H       
  23 H23           -0.7396     3.6874    -0.8894 H       
  24 H24           -0.7568     3.5854     0.8879 H       
  25 H25           -1.2370     5.8979     0.0950 H       
  26 H26            0.2702     5.8271     1.0400 H       
  27 H27            2.4357     5.9730    -1.9103 H       
  28 H28            2.4184     5.8710    -0.1330 H       
  29 H29            2.9159     3.6604    -1.1174 H       
  30 H30            1.4087     3.7313    -2.0624 H       
  31 H31           -0.5034     7.8828    -1.2581 H       
  32 H32            0.7925     7.8993    -0.0381 H       
  33 H33            2.4890     7.7218    -1.8378 H       
  34 H34            1.1931     7.7053    -3.0578 H       
  35 H35            0.4491     9.9453    -2.2978 H       
  36 H36            1.7451     9.9618    -1.0778 H       
  37 H37            3.4416     9.7843    -2.8775 H       
  38 H38            2.1457     9.7678    -4.0976 H       
  39 H39            2.4160    11.2210    -3.1059 H       
@<TRIPOS>BOND
   1    1    2 ar
   2    1    6 ar
   3    1   19 1
   4    2    3 ar
   5    2   20 1
   6    3    4 ar
   7    3   21 1
   8    4    5 ar
   9    4   13 1
  10    5    6 ar
  11    5   22 1
  12    6    7 1
  13    7    8 1
  14    7   12 1
  15    8    9 1
  16    8   23 1
  17    8   24 1
  18    9   10 1
  19    9   25 1
  20    9   26 1
  21   10   11 1
  22   10   15 1
  23   11   12 1
  24   11   27 1
  25   11   28 1
  26   12   29 1
  27   12   30 1
  28   13   14 3
  29   15   16 1
  30   15   31 1
  31   15   32 1
  32   16   17 1
  33   16   33 1
  34   16   34 1
  35   17   18 1
  36   17   35 1
  37   17   36 1
  38   18   37 1
  39   18   38 1
  40   18   39 1

#	End of record

