#	Name: ASD04881095
#	Creating user name:	WinNT
#	Creation time:	15. 06. 2019 20:53

#	Modifying user name:	WinNT
#	Modification time:	15. 06. 2019 20:53

#	Program:	/corina/corina34_cracker 3.40 0067  02.08.2006

@<TRIPOS>MOLECULE
ASD04881095
  84   90    0    0    0
SMALL
NO_CHARGES


@<TRIPOS>ATOM
   1 C1             0.4806     1.0602    -0.4868 C.2     
   2 C2             1.6920     1.6325    -0.7265 C.2     
   3 C3             2.0783     3.0231    -0.4269 C.2     
   4 O4             1.2759     3.7803     0.0851 O.2     
   5 N5             2.4794     0.6793    -1.2947 N.2     
   6 C6             1.7895    -0.4169    -1.3980 C.2     
   7 O7             0.5582    -0.2118    -0.9095 O.3     
   8 C8             2.2939    -1.7140    -1.9762 C.3     
   9 N9             3.3207     3.4555    -0.7202 N.am    
  10 C10            3.6546     4.8039    -0.5371 C.ar    
  11 C11            4.9529     5.1579    -0.1581 C.ar    
  12 C12            5.2856     6.4950     0.0234 C.ar    
  13 C13            4.3379     7.4761    -0.1688 C.ar    
  14 C14            3.0384     7.1292    -0.5476 C.ar    
  15 C15            2.7026     5.7852    -0.7364 C.ar    
  16 C16            2.0235     8.1800    -0.7529 C.2     
  17 O17            0.8929     7.8772    -1.0825 O.2     
  18 N18            2.3494     9.4756    -0.5752 N.am    
  19 C19            1.3416    10.5191    -0.7791 C.3     
  20 C20            1.9665    11.8904    -0.5145 C.3     
  21 N21            5.9138     4.1694     0.0381 N.3     
  22 C22            5.5785     3.3319     1.1982 C.3     
  23 C23            6.6133     2.2122     1.3318 C.3     
  24 N24            7.9517     2.8008     1.4801 N.3     
  25 C25            8.2870     3.6383     0.3200 C.3     
  26 C26            7.2521     4.7580     0.1864 C.3     
  27 C27            8.9156     1.8093     1.6769 C.ar    
  28 C28            8.9090     1.0536     2.8428 C.ar    
  29 C29            9.8631     0.0739     3.0340 C.ar    
  30 C30           10.8247    -0.1553     2.0667 C.ar    
  31 C31           10.8341     0.5949     0.9053 C.ar    
  32 C32            9.8792     1.5727     0.7051 C.ar    
  33 C33            7.8622     1.3033     3.8977 C.3     
  34 C34            0.9139    12.9802    -0.7274 C.3     
  35 N35            1.5123    14.2932    -0.4740 N.am    
  36 C36            2.1860    15.1528    -1.4888 C.3     
  37 C37            3.2965    15.8207    -0.6003 C.3     
  38 C38            2.2805    16.2625     0.5157 C.3     
  39 C39            1.5408    14.9327     0.7218 C.2     
  40 O40            1.0704    14.5273     1.7635 O.2     
  41 C41            1.2110    16.3566    -1.6815 C.3     
  42 C42            1.2886    17.1131    -0.3400 C.3     
  43 C43            2.2951    -2.9415    -1.0628 C.3     
  44 C44            1.2740    -2.8329    -2.1970 C.3     
  45 H45           -0.3781     1.5372    -0.0378 H       
  46 H46            3.1056    -1.6229    -2.6979 H       
  47 H47            3.9836     2.8332    -1.0581 H       
  48 H48            6.2894     6.7655     0.3162 H       
  49 H49            4.5993     8.5142    -0.0263 H       
  50 H50            1.7002     5.5144    -1.0335 H       
  51 H51            3.2513     9.7172    -0.3122 H       
  52 H52            0.9781    10.4775    -1.8058 H       
  53 H53            0.5100    10.3602    -0.0925 H       
  54 H54            2.3299    11.9320     0.5123 H       
  55 H55            2.7980    12.0493    -1.2010 H       
  56 H56            5.5844     3.9422     2.1012 H       
  57 H57            4.5885     2.8974     1.0591 H       
  58 H58            6.3831     1.6069     2.2086 H       
  59 H59            6.5884     1.5856     0.4403 H       
  60 H60            9.2769     4.0728     0.4591 H       
  61 H61            8.2810     3.0279    -0.5830 H       
  62 H62            7.4824     5.3632    -0.6904 H       
  63 H63            7.2771     5.3846     1.0779 H       
  64 H64            9.8586    -0.5139     3.9400 H       
  65 H65           11.5702    -0.9217     2.2191 H       
  66 H66           11.5864     0.4134     0.1520 H       
  67 H67            9.8844     2.1553    -0.2042 H       
  68 H68            7.0243     0.6227     3.7464 H       
  69 H69            8.2934     1.1349     4.8845 H       
  70 H70            7.5117     2.3328     3.8252 H       
  71 H71            0.5504    12.9386    -1.7542 H       
  72 H72            0.0823    12.8213    -0.0409 H       
  73 H73            2.5145    14.6518    -2.3994 H       
  74 H74            4.0278    15.0994    -0.2357 H       
  75 H75            3.7691    16.6703    -1.0932 H       
  76 H76            2.6833    16.7394     1.4093 H       
  77 H77            1.5499    16.9965    -2.4962 H       
  78 H78            0.1976    16.0017    -1.8689 H       
  79 H79            0.3056    17.1433     0.1300 H       
  80 H80            1.6758    18.1215    -0.4859 H       
  81 H81            3.1075    -3.6580    -1.1838 H       
  82 H82            1.9312    -2.8108    -0.0437 H       
  83 H83            0.2382    -2.6309    -1.9241 H       
  84 H84            1.4146    -3.4781    -3.0642 H       
@<TRIPOS>BOND
   1    1    7 1
   2    1    2 2
   3    1   45 1
   4    2    3 1
   5    2    5 1
   6    3    4 2
   7    3    9 am
   8    5    6 2
   9    6    7 1
  10    6    8 1
  11    8   43 1
  12    8   44 1
  13    8   46 1
  14    9   10 1
  15    9   47 1
  16   10   11 ar
  17   10   15 ar
  18   11   12 ar
  19   11   21 1
  20   12   13 ar
  21   12   48 1
  22   13   14 ar
  23   13   49 1
  24   14   15 ar
  25   14   16 1
  26   15   50 1
  27   16   17 2
  28   16   18 am
  29   18   19 1
  30   18   51 1
  31   19   20 1
  32   19   52 1
  33   19   53 1
  34   20   34 1
  35   20   54 1
  36   20   55 1
  37   21   22 1
  38   21   26 1
  39   22   23 1
  40   22   56 1
  41   22   57 1
  42   23   24 1
  43   23   58 1
  44   23   59 1
  45   24   25 1
  46   24   27 1
  47   25   26 1
  48   25   60 1
  49   25   61 1
  50   26   62 1
  51   26   63 1
  52   27   28 ar
  53   27   32 ar
  54   28   29 ar
  55   28   33 1
  56   29   30 ar
  57   29   64 1
  58   30   31 ar
  59   30   65 1
  60   31   32 ar
  61   31   66 1
  62   32   67 1
  63   33   68 1
  64   33   69 1
  65   33   70 1
  66   34   35 1
  67   34   71 1
  68   34   72 1
  69   35   36 1
  70   35   39 am
  71   36   41 1
  72   36   37 1
  73   36   73 1
  74   37   38 1
  75   37   74 1
  76   37   75 1
  77   38   39 1
  78   38   42 1
  79   38   76 1
  80   39   40 2
  81   41   42 1
  82   41   77 1
  83   41   78 1
  84   42   79 1
  85   42   80 1
  86   43   44 1
  87   43   81 1
  88   43   82 1
  89   44   83 1
  90   44   84 1

#	End of record

