#	Name: ASD01881500
#	Creating user name:	WinNT
#	Creation time:	15. 06. 2019 19:42

#	Modifying user name:	WinNT
#	Modification time:	15. 06. 2019 19:42

#	Program:	/corina/corina34_cracker 3.40 0067  02.08.2006

@<TRIPOS>MOLECULE
ASD01881500
  55   59    0    0    0
SMALL
NO_CHARGES


@<TRIPOS>ATOM
   1 C1            -0.0161     1.3337     0.0094 C.2     
   2 N2             0.0021    -0.0041     0.0020 N.am    
   3 C3             1.2613    -0.4841    -0.0126 C.2     
   4 C4             2.1640     0.7337    -0.0147 C.3     
   5 N5             1.2200     1.8645     0.0004 N.am    
   6 O6            -1.0354     1.9955     0.0180 O.2     
   7 O7             1.6013    -1.6477    -0.0215 O.2     
   8 C8            -1.1986    -0.8435     0.0097 C.3     
   9 C9             1.5609     3.2893     0.0041 C.3     
  10 C10            1.6916     3.7708     1.4261 C.ar    
  11 C11            2.9177     3.7118     2.0630 C.ar    
  12 C12            3.0433     4.1522     3.3673 C.ar    
  13 C13            1.9285     4.6569     4.0402 C.ar    
  14 C14            0.6965     4.7129     3.3909 C.ar    
  15 C15            0.5858     4.2753     2.0867 C.ar    
  16 F16            4.2411     4.0941     3.9895 F       
  17 C17            2.2724     6.7410     9.3445 C.2     
  18 N18            1.6783     7.9376     9.1976 N.am    
  19 C19            1.2606     8.0891     7.7993 C.3     
  20 C20            1.6769     6.8214     7.0954 C.ar    
  21 C21            1.5589     6.3856     5.7994 C.ar    
  22 C22            2.0549     5.1307     5.4391 C.ar    
  23 C23            2.6688     4.3233     6.3966 C.ar    
  24 C24            2.7877     4.7602     7.6980 C.ar    
  25 C25            2.2913     6.0173     8.0610 C.ar    
  26 O26            2.7335     6.3180    10.3869 O.2     
  27 C27            1.4798     8.9274    10.2593 C.3     
  28 C28            0.6287     8.3160    11.3740 C.3     
  29 C29            2.8377     9.3467    10.8260 C.3     
  30 C30            2.8439    10.3814    11.9530 C.3     
  31 C31            3.1691     8.9175    12.2567 C.3     
  32 Cl32           3.5530     3.7523     8.8862 Cl      
  33 H33            2.7924     0.7467     0.8759 H       
  34 H34            2.7753     0.7564    -0.9169 H       
  35 H35           -1.5068    -1.0461    -1.0159 H       
  36 H36           -0.9813    -1.7838     0.5163 H       
  37 H37           -2.0010    -0.3250     0.5345 H       
  38 H38            2.5060     3.4381    -0.5182 H       
  39 H39            0.7749     3.8522    -0.4994 H       
  40 H40            3.7783     3.3208     1.5407 H       
  41 H41           -0.1691     5.1022     3.9061 H       
  42 H42           -0.3678     4.3229     1.5819 H       
  43 H43            0.1790     8.2114     7.7424 H       
  44 H44            1.7594     8.9481     7.3503 H       
  45 H45            1.0833     7.0120     5.0594 H       
  46 H46            3.0518     3.3529     6.1173 H       
  47 H47            0.9711     9.8008     9.8512 H       
  48 H48            0.4811     9.0525    12.1639 H       
  49 H49           -0.3387     8.0173    10.9703 H       
  50 H50            1.1375     7.4426    11.7821 H       
  51 H51            3.6569     9.3800    10.1077 H       
  52 H52            3.6673    11.0952    11.9764 H       
  53 H53            1.8805    10.7634    12.2908 H       
  54 H54            2.4197     8.3365    12.7942 H       
  55 H55            4.2065     8.6683    12.4798 H       
@<TRIPOS>BOND
   1    1    2 am
   2    1    5 am
   3    1    6 2
   4    2    3 am
   5    2    8 1
   6    3    4 1
   7    3    7 2
   8    4    5 1
   9    4   33 1
  10    4   34 1
  11    5    9 1
  12    8   35 1
  13    8   36 1
  14    8   37 1
  15    9   10 1
  16    9   38 1
  17    9   39 1
  18   10   11 ar
  19   10   15 ar
  20   11   12 ar
  21   11   40 1
  22   12   13 ar
  23   12   16 1
  24   13   14 ar
  25   13   22 1
  26   14   15 ar
  27   14   41 1
  28   15   42 1
  29   17   18 am
  30   17   25 1
  31   17   26 2
  32   18   19 1
  33   18   27 1
  34   19   20 1
  35   19   43 1
  36   19   44 1
  37   20   21 ar
  38   20   25 ar
  39   21   22 ar
  40   21   45 1
  41   22   23 ar
  42   23   24 ar
  43   23   46 1
  44   24   25 ar
  45   24   32 1
  46   27   28 1
  47   27   29 1
  48   27   47 1
  49   28   48 1
  50   28   49 1
  51   28   50 1
  52   29   30 1
  53   29   31 1
  54   29   51 1
  55   30   31 1
  56   30   52 1
  57   30   53 1
  58   31   54 1
  59   31   55 1

#	End of record

