#	Name: ASD01882794
#	Creating user name:	WinNT
#	Creation time:	15. 06. 2019 19:45

#	Modifying user name:	WinNT
#	Modification time:	15. 06. 2019 19:45

#	Program:	/corina/corina34_cracker 3.40 0067  02.08.2006

@<TRIPOS>MOLECULE
ASD01882794
  25   27    0    0    0
SMALL
NO_CHARGES


@<TRIPOS>ATOM
   1 N1            -0.0165     1.3638     0.0095 N.pl3   
   2 C2             0.0021    -0.0041     0.0020 C.2     
   3 C3             1.2701    -0.4446    -0.0124 C.2     
   4 C4             2.1349     0.7378    -0.0143 C.ar    
   5 C5             3.5188     0.9265    -0.0265 C.ar    
   6 C6             4.0324     2.2078    -0.0246 C.ar    
   7 C7             3.1771     3.3069    -0.0100 C.ar    
   8 C8             1.8114     3.1326     0.0021 C.ar    
   9 C9             1.2740     1.8496    -0.0002 C.ar    
  10 O10            5.3789     2.3977    -0.0364 O.3     
  11 C11            5.8436     3.7490    -0.0336 C.3     
  12 O12            8.0236     4.3361    -1.1839 O.3     
  13 C13            7.3734     3.7623    -0.0481 C.3     
  14 C14            8.0752     5.1206     0.0094 C.3     
  15 H15           -0.8178     1.9103     0.0165 H       
  16 H16           -0.8737    -0.6360     0.0073 H       
  17 H17            1.5918    -1.4755    -0.0207 H       
  18 H18            4.1831     0.0750    -0.0371 H       
  19 H19            3.5891     4.3052    -0.0079 H       
  20 H20            1.1574     3.9920     0.0136 H       
  21 H21            5.4674     4.2644    -0.9172 H       
  22 H22            5.4843     4.2549     0.8626 H       
  23 H23            7.8584     2.9180     0.4420 H       
  24 H24            9.0266     5.1788     0.5382 H       
  25 H25            7.4512     6.0130     0.0579 H       
@<TRIPOS>BOND
   1    1    2 1
   2    1    9 1
   3    1   15 1
   4    2    3 2
   5    2   16 1
   6    3    4 1
   7    3   17 1
   8    4    5 ar
   9    4    9 ar
  10    5    6 ar
  11    5   18 1
  12    6    7 ar
  13    6   10 1
  14    7    8 ar
  15    7   19 1
  16    8    9 ar
  17    8   20 1
  18   10   11 1
  19   11   13 1
  20   11   21 1
  21   11   22 1
  22   12   13 1
  23   12   14 1
  24   13   14 1
  25   13   23 1
  26   14   24 1
  27   14   25 1

#	End of record

