#	Name: ASD09120007
#	Creating user name:	WinNT
#	Creation time:	15. 06. 2019 21:21

#	Modifying user name:	WinNT
#	Modification time:	15. 06. 2019 21:21

#	Program:	/corina/corina34_cracker 3.40 0067  02.08.2006

@<TRIPOS>MOLECULE
ASD09120007
  32   33    0    0    0
SMALL
NO_CHARGES


@<TRIPOS>ATOM
   1 C1            -0.0528     1.3758    -0.0154 C.ar    
   2 C2            -0.0519    -0.0035    -0.0303 C.ar    
   3 C3             1.1262    -0.7007     0.1721 C.ar    
   4 C4             2.3110    -0.0212     0.3902 C.ar    
   5 C5             2.3253     1.3597     0.4073 C.ar    
   6 C6             1.1387     2.0694     0.2040 C.ar    
   7 N7            -1.3147    -0.7399    -0.2628 N.pl3   
   8 O8            -2.3526    -0.1279    -0.4408 O.2     
   9 O9            -1.3158    -1.9578    -0.2763 O.2     
  10 C10            1.1452     3.5467     0.2207 C.2     
  11 O11            2.1845     4.1478     0.4120 O.2     
  12 N12           -0.0009     4.2279     0.0238 N.am    
  13 C13           -0.0140     5.6217     0.1365 C.ar    
  14 Cl14           3.8128     2.2115     0.6816 Cl      
  15 C15            1.0703     7.7407    -0.1702 C.ar    
  16 C16            1.0834     6.3636    -0.2816 C.ar    
  17 C17           -1.1260     6.2662     0.6611 C.ar    
  18 C18           -1.1353     7.6476     0.7708 C.ar    
  19 C19           -0.0337     8.3834     0.3562 C.ar    
  20 O20           -2.2226     8.2816     1.2835 O.3     
  21 C21           -2.1630     9.7069     1.3670 C.3     
  22 H22           -0.9726     1.9181    -0.1777 H       
  23 H23            1.1204    -1.7806     0.1601 H       
  24 H24            3.2268    -0.5716     0.5478 H       
  25 H25           -0.8167     3.7514    -0.1960 H       
  26 H26            1.9246     8.3159    -0.4955 H       
  27 H27            1.9475     5.8637    -0.6937 H       
  28 H28           -1.9823     5.6921     0.9829 H       
  29 H29           -0.0407     9.4599     0.4426 H       
  30 H30           -1.3269     9.9989     2.0025 H       
  31 H31           -2.0242    10.1238     0.3695 H       
  32 H32           -3.0924    10.0850     1.7928 H       
@<TRIPOS>BOND
   1    1    2 ar
   2    1    6 ar
   3    1   22 1
   4    2    3 ar
   5    2    7 1
   6    3    4 ar
   7    3   23 1
   8    4    5 ar
   9    4   24 1
  10    5    6 ar
  11    5   14 1
  12    6   10 1
  13    7    8 2
  14    7    9 2
  15   10   11 2
  16   10   12 am
  17   12   13 1
  18   12   25 1
  19   13   17 ar
  20   13   16 ar
  21   15   16 ar
  22   15   19 ar
  23   15   26 1
  24   16   27 1
  25   17   18 ar
  26   17   28 1
  27   18   19 ar
  28   18   20 1
  29   19   29 1
  30   20   21 1
  31   21   30 1
  32   21   31 1
  33   21   32 1

#	End of record

