#	Name: ASD03731523
#	Creating user name:	WinNT
#	Creation time:	15. 06. 2019 20:45

#	Modifying user name:	WinNT
#	Modification time:	15. 06. 2019 20:45

#	Program:	/corina/corina34_cracker 3.40 0067  02.08.2006

@<TRIPOS>MOLECULE
ASD03731523
  58   63    0    0    0
SMALL
NO_CHARGES


@<TRIPOS>ATOM
   1 N1            -0.0178     1.4675     0.0074 N.am    
   2 C2             0.0025    -0.0039     0.0048 C.3     
   3 C3             0.9178    -0.4728    -1.1320 C.3     
   4 O4             2.1846     0.1794    -1.0158 O.3     
   5 C5             2.1248     1.6018    -1.1458 C.3     
   6 C6             1.2713     2.1770    -0.0097 C.3     
   7 C7            -1.1826     2.1453     0.0194 C.2     
   8 O8            -2.2363     1.5449    -0.0682 O.2     
   9 N9            -1.1796     3.4886     0.1284 N.am    
  10 C10           -2.4365     4.2345     0.0285 C.3     
  11 C11           -2.1557     5.7304     0.1852 C.3     
  12 C12           -3.4685     6.5093     0.0809 C.3     
  13 O13            2.3307    10.6163    -1.0117 O.3     
  14 C14            3.0034    11.8880    -1.0681 C.3     
  15 O15            2.0222    12.7691    -1.6459 O.3     
  16 C16            0.8101    12.2357    -1.3122 C.ar    
  17 C17            1.0004    10.9117    -0.9233 C.ar    
  18 C18           -0.4607    12.7821    -1.3078 C.ar    
  19 C19           -1.5559    12.0169    -0.9184 C.ar    
  20 C20           -1.3544    10.6930    -0.5399 C.ar    
  21 C21           -0.0877    10.1471    -0.5373 C.ar    
  22 O22           -2.8723    12.3619    -0.8269 O.3     
  23 C23           -2.7105    10.1310    -0.2068 C.3     
  24 C24           -3.6759    11.1666    -0.7993 C.3     
  25 N25           -3.1996     7.9416     0.2310 N.am    
  26 C26           -2.9210     8.7668    -0.7979 C.2     
  27 C27           -2.9106     9.9600     1.2699 C.ar    
  28 C28           -2.8578    10.8210     2.3432 C.ar    
  29 C29           -3.0973    10.3500     3.6218 C.ar    
  30 C30           -3.3892     9.0126     3.8193 C.ar    
  31 C31           -3.4422     8.1460     2.7476 C.ar    
  32 C32           -3.2029     8.6114     1.4569 C.ar    
  33 O33           -2.8540     8.4664    -1.9710 O.2     
  34 H34            0.3856    -0.3674     0.9583 H       
  35 H35           -1.0062    -0.3846    -0.1553 H       
  36 H36            1.0564    -1.5519    -1.0662 H       
  37 H37            0.4653    -0.2209    -2.0911 H       
  38 H38            3.1318     2.0152    -1.0898 H       
  39 H39            1.6767     1.8612    -2.1049 H       
  40 H40            1.1028     3.2405    -0.1793 H       
  41 H41            1.7822     2.0330     0.9424 H       
  42 H42           -0.3451     3.9616     0.2730 H       
  43 H43           -2.8920     4.0503    -0.9445 H       
  44 H44           -3.1163     3.9080     0.8155 H       
  45 H45           -1.7003     5.9145     1.1582 H       
  46 H46           -1.4760     6.0569    -0.6018 H       
  47 H47           -3.9239     6.3252    -0.8921 H       
  48 H48           -4.1482     6.1828     0.8679 H       
  49 H49            3.2756    12.2220    -0.0668 H       
  50 H50            3.8856    11.8267    -1.7054 H       
  51 H51           -0.6039    13.8094    -1.6087 H       
  52 H52            0.0558     9.1207    -0.2338 H       
  53 H53           -4.5448    11.2991    -0.1546 H       
  54 H54           -3.9797    10.8810    -1.8064 H       
  55 H55           -2.6296    11.8649     2.1867 H       
  56 H56           -3.0569    11.0253     4.4637 H       
  57 H57           -3.5760     8.6450     4.8174 H       
  58 H58           -3.6702     7.1029     2.9098 H       
@<TRIPOS>BOND
   1    1    2 1
   2    1    6 1
   3    1    7 am
   4    2    3 1
   5    2   34 1
   6    2   35 1
   7    3    4 1
   8    3   36 1
   9    3   37 1
  10    4    5 1
  11    5    6 1
  12    5   38 1
  13    5   39 1
  14    6   40 1
  15    6   41 1
  16    7    8 2
  17    7    9 am
  18    9   10 1
  19    9   42 1
  20   10   11 1
  21   10   43 1
  22   10   44 1
  23   11   12 1
  24   11   45 1
  25   11   46 1
  26   12   25 1
  27   12   47 1
  28   12   48 1
  29   13   14 1
  30   13   17 1
  31   14   15 1
  32   14   49 1
  33   14   50 1
  34   15   16 1
  35   16   17 ar
  36   16   18 ar
  37   17   21 ar
  38   18   19 ar
  39   18   51 1
  40   19   20 ar
  41   19   22 1
  42   20   21 ar
  43   20   23 1
  44   21   52 1
  45   22   24 1
  46   23   24 1
  47   23   26 1
  48   23   27 1
  49   24   53 1
  50   24   54 1
  51   25   26 am
  52   25   32 1
  53   26   33 2
  54   27   28 ar
  55   27   32 ar
  56   28   29 ar
  57   28   55 1
  58   29   30 ar
  59   29   56 1
  60   30   31 ar
  61   30   57 1
  62   31   32 ar
  63   31   58 1

#	End of record

