#	Name: ASD09740657
#	Creating user name:	WinNT
#	Creation time:	15. 06. 2019 21:23

#	Modifying user name:	WinNT
#	Modification time:	15. 06. 2019 21:23

#	Program:	/corina/corina34_cracker 3.40 0067  02.08.2006

@<TRIPOS>MOLECULE
ASD09740657
  58   61    0    0    0
SMALL
NO_CHARGES


@<TRIPOS>ATOM
   1 C1            -2.3877    -0.9077    -1.0542 C.1     
   2 C2            -2.0437     0.4619    -0.8160 C.ar    
   3 C3            -0.7058     0.8264    -0.6230 C.ar    
   4 C4            -0.3739     2.1498    -0.3929 C.ar    
   5 C5            -1.3573     3.1167    -0.3518 C.ar    
   6 C6            -2.6964     2.7658    -0.5424 C.ar    
   7 C7            -3.0392     1.4368    -0.7813 C.ar    
   8 N8            -2.6606    -1.9941    -1.2431 N.1     
   9 F9             0.2623    -0.1152    -0.6611 F       
  10 S10           -3.4725     5.5210    -0.2141 S.3     
  11 C11           -3.7470     3.8042    -0.4971 C.2     
  12 N12           -5.0230     3.5943    -0.6603 N.2     
  13 C13           -5.8149     4.6348    -0.5880 C.2     
  14 C14           -5.2048     5.8166    -0.3496 C.2     
  15 C15           -5.7580     9.8801     2.2377 C.3     
  16 C16           -4.4623     9.1508     2.6520 C.3     
  17 C17           -4.6650     7.7467     2.0440 C.3     
  18 C18           -5.5950     7.9552     0.8683 C.ar    
  19 C19           -5.8736     7.1287    -0.2247 C.ar    
  20 C20           -6.7830     7.5443    -1.1970 C.ar    
  21 C21           -7.4036     8.7705    -1.0749 C.ar    
  22 C22           -7.1248     9.5838     0.0073 C.ar    
  23 C23           -6.2221     9.1787     0.9788 C.ar    
  24 O24           -6.7445     9.7602     3.2646 O.3     
  25 Si25          -6.8347    11.0549     4.2523 Si      
  26 C26           -5.1625    11.3774     5.0077 C.3     
  27 C27           -7.3721    12.5464     3.2738 C.3     
  28 C28           -8.0724    10.7200     5.6038 C.3     
  29 C29           -7.6311     9.4951     6.4075 C.3     
  30 C30           -8.1570    11.9345     6.5304 C.3     
  31 C31           -9.4457    10.4552     4.9835 C.3     
  32 H32            0.6593     2.4271    -0.2445 H       
  33 H33           -1.0914     4.1478    -0.1713 H       
  34 H34           -4.0725     1.1623    -0.9340 H       
  35 H35           -6.8848     4.5537    -0.7111 H       
  36 H36           -5.5515    10.9303     2.0313 H       
  37 H37           -3.5882     9.6379     2.2198 H       
  38 H38           -4.3791     9.0949     3.7374 H       
  39 H39           -3.7122     7.3400     1.7052 H       
  40 H40           -5.1230     7.0804     2.7751 H       
  41 H41           -7.0003     6.9087    -2.0427 H       
  42 H42           -8.1080     9.0955    -1.8263 H       
  43 H43           -7.6137    10.5426     0.0968 H       
  44 H44           -4.4383    11.5734     4.2170 H       
  45 H45           -5.2227    12.2427     5.6678 H       
  46 H46           -4.8481    10.5048     5.5803 H       
  47 H47           -8.3054    12.3244     2.7563 H       
  48 H48           -7.5223    13.3889     3.9487 H       
  49 H49           -6.6029    12.7984     2.5437 H       
  50 H50           -6.6527     9.6838     6.8494 H       
  51 H51           -8.3553     9.2991     7.1982 H       
  52 H52           -7.5708     8.6299     5.7474 H       
  53 H53           -8.4714    12.8071     5.9579 H       
  54 H54           -8.8812    11.7385     7.3211 H       
  55 H55           -7.1787    12.1232     6.9724 H       
  56 H56           -9.3855     9.5899     4.3233 H       
  57 H57          -10.1699    10.2592     5.7742 H       
  58 H58           -9.7602    11.3278     4.4109 H       
@<TRIPOS>BOND
   1    1    2 1
   2    1    8 3
   3    2    3 ar
   4    2    7 ar
   5    3    4 ar
   6    3    9 1
   7    4    5 ar
   8    4   32 1
   9    5    6 ar
  10    5   33 1
  11    6    7 ar
  12    6   11 1
  13    7   34 1
  14   10   11 1
  15   10   14 1
  16   11   12 2
  17   12   13 1
  18   13   14 2
  19   13   35 1
  20   14   19 1
  21   15   16 1
  22   15   23 1
  23   15   24 1
  24   15   36 1
  25   16   17 1
  26   16   37 1
  27   16   38 1
  28   17   18 1
  29   17   39 1
  30   17   40 1
  31   18   19 ar
  32   18   23 ar
  33   19   20 ar
  34   20   21 ar
  35   20   41 1
  36   21   22 ar
  37   21   42 1
  38   22   23 ar
  39   22   43 1
  40   24   25 1
  41   25   26 1
  42   25   27 1
  43   25   28 1
  44   26   44 1
  45   26   45 1
  46   26   46 1
  47   27   47 1
  48   27   48 1
  49   27   49 1
  50   28   29 1
  51   28   31 1
  52   28   30 1
  53   29   50 1
  54   29   51 1
  55   29   52 1
  56   30   53 1
  57   30   54 1
  58   30   55 1
  59   31   56 1
  60   31   57 1
  61   31   58 1

#	End of record

