#	Name: ASD01912498
#	Creating user name:	WinNT
#	Creation time:	15. 06. 2019 19:59

#	Modifying user name:	WinNT
#	Modification time:	15. 06. 2019 19:59

#	Program:	/corina/corina34_cracker 3.40 0067  02.08.2006

@<TRIPOS>MOLECULE
ASD01912498
  46   49    0    0    0
SMALL
NO_CHARGES


@<TRIPOS>ATOM
   1 C1            -0.0438     1.4516    -0.0199 C.2     
   2 O2            -0.0569     0.1163    -0.0780 O.3     
   3 N3            -1.2004    -0.2881    -0.0814 N.2     
   4 C4            -2.0332     0.7185    -0.0270 C.2     
   5 N5            -1.2915     1.8482     0.0182 N.2     
   6 C6            -3.5151     0.6363    -0.0121 C.ar    
   7 C7            -4.1466    -0.6044    -0.0578 C.ar    
   8 C8            -5.5263    -0.6750    -0.0437 C.ar    
   9 C9            -6.2800     0.4844     0.0158 C.ar    
  10 C10           -5.6569     1.7185     0.0613 C.ar    
  11 C11           -4.2792     1.7997     0.0534 C.ar    
  12 Cl12          -6.3158    -2.2201    -0.1011 Cl      
  13 C13            1.1772     2.3346     0.0038 C.3     
  14 C14            2.1073     2.0740     1.2025 C.3     
  15 N15            3.2186     2.2028     0.2399 N.am    
  16 C16            2.3313     1.8202    -0.8756 C.3     
  17 C17            4.5207     2.5360     0.3396 C.2     
  18 N18            5.3246     2.4423    -0.7381 N.am    
  19 O19            4.9701     2.9212     1.4016 O.2     
  20 C20            6.6379     2.9323    -0.6396 C.3     
  21 C21            6.8770     4.0399    -1.6994 C.3     
  22 C22            6.9419     3.3979    -3.0646 C.3     
  23 C23            5.5906     3.3640    -3.7993 C.3     
  24 C24            4.4260     2.9671    -2.8926 C.3     
  25 C25            4.7880     1.8249    -1.9645 C.3     
  26 H26           -3.5589    -1.5093    -0.1045 H       
  27 H27           -7.3583     0.4253     0.0263 H       
  28 H28           -6.2496     2.6201     0.1075 H       
  29 H29           -3.7942     2.7640     0.0894 H       
  30 H30            0.9428     3.3881    -0.1489 H       
  31 H31            2.0848     2.8618     1.9555 H       
  32 H32            2.0074     1.0751     1.6271 H       
  33 H33            2.2972     0.7467    -1.0615 H       
  34 H34            2.4876     2.4053    -1.7818 H       
  35 H35            6.7954     3.3456     0.3567 H       
  36 H36            7.3412     2.1162    -0.8050 H       
  37 H37            6.0562     4.7565    -1.6710 H       
  38 H38            7.8176     4.5494    -1.4900 H       
  39 H39            7.6563     3.9499    -3.6752 H       
  40 H40            7.3023     2.3754    -2.9515 H       
  41 H41            5.3917     4.3525    -4.2132 H       
  42 H42            5.6555     2.6494    -4.6198 H       
  43 H43            4.1325     3.8304    -2.2954 H       
  44 H44            3.5821     2.6646    -3.5126 H       
  45 H45            5.5435     1.1914    -2.4292 H       
  46 H46            3.8997     1.2382    -1.7306 H       
@<TRIPOS>BOND
   1    1    2 1
   2    1   13 1
   3    1    5 2
   4    2    3 1
   5    3    4 2
   6    4    5 1
   7    4    6 1
   8    6    7 ar
   9    6   11 ar
  10    7    8 ar
  11    7   26 1
  12    8    9 ar
  13    8   12 1
  14    9   10 ar
  15    9   27 1
  16   10   11 ar
  17   10   28 1
  18   11   29 1
  19   13   14 1
  20   13   16 1
  21   13   30 1
  22   14   15 1
  23   14   31 1
  24   14   32 1
  25   15   16 1
  26   15   17 am
  27   16   33 1
  28   16   34 1
  29   17   18 am
  30   17   19 2
  31   18   20 1
  32   18   25 1
  33   20   21 1
  34   20   35 1
  35   20   36 1
  36   21   22 1
  37   21   37 1
  38   21   38 1
  39   22   23 1
  40   22   39 1
  41   22   40 1
  42   23   24 1
  43   23   41 1
  44   23   42 1
  45   24   25 1
  46   24   43 1
  47   24   44 1
  48   25   45 1
  49   25   46 1

#	End of record

