#	Name: ASD08070674
#	Creating user name:	WinNT
#	Creation time:	15. 06. 2019 21:15

#	Modifying user name:	WinNT
#	Modification time:	15. 06. 2019 21:15

#	Program:	/corina/corina34_cracker 3.40 0067  02.08.2006

@<TRIPOS>MOLECULE
ASD08070674
  39   40    0    0    0
SMALL
NO_CHARGES


@<TRIPOS>ATOM
   1 C1            -0.0179     1.4668     0.0101 C.2     
   2 C2             0.0021    -0.0041     0.0020 C.2     
   3 C3             1.1627    -0.6533    -0.0126 C.2     
   4 C4             1.1831    -2.1601    -0.0208 C.3     
   5 C5             1.8993    -2.6535    -1.2796 C.3     
   6 O6             1.0269     2.0891     0.0035 O.2     
   7 N7            -1.1941     2.1247     0.0193 N.am    
   8 C8            -1.2140     3.5896     0.0273 C.3     
   9 C9            -2.5304     4.0787    -0.5732 C.3     
  10 C10           -2.6259     5.5939    -0.3587 C.3     
  11 C11           -2.8360     5.8570     1.1311 C.3     
  12 C12           -1.8050     5.1241     1.9490 C.ar    
  13 C13           -1.6121     5.5321     3.2627 C.ar    
  14 C14           -0.6856     4.8987     4.0646 C.ar    
  15 C15            0.0571     3.8483     3.5579 C.ar    
  16 C16           -0.1321     3.4425     2.2533 C.ar    
  17 C17           -1.0630     4.0806     1.4433 C.ar    
  18 C18            1.9231    -2.6670     1.2187 C.3     
  19 H19           -0.9258    -0.5567     0.0079 H       
  20 H20            2.0906    -0.1006    -0.0184 H       
  21 H21            0.1605    -2.5374    -0.0131 H       
  22 H22            1.9141    -3.7434    -1.2856 H       
  23 H23            1.3721    -2.2925    -2.1627 H       
  24 H24            2.9219    -2.2763    -1.2874 H       
  25 H25           -2.0275     1.6284     0.0205 H       
  26 H26           -0.3843     3.9635    -0.5726 H       
  27 H27           -2.5521     3.8569    -1.6401 H       
  28 H28           -3.3660     3.5844    -0.0778 H       
  29 H29           -1.7029     6.0704    -0.6891 H       
  30 H30           -3.4682     5.9924    -0.9242 H       
  31 H31           -2.7523     6.9268     1.3225 H       
  32 H32           -3.8309     5.5177     1.4192 H       
  33 H33           -2.1920     6.3523     3.6594 H       
  34 H34           -0.5406     5.2224     5.0847 H       
  35 H35            0.7830     3.3476     4.1813 H       
  36 H36            0.4488     2.6223     1.8580 H       
  37 H37            1.4129    -2.3154     2.1155 H       
  38 H38            1.9379    -3.7568     1.2127 H       
  39 H39            2.9457    -2.2897     1.2110 H       
@<TRIPOS>BOND
   1    1    2 1
   2    1    6 2
   3    1    7 am
   4    2    3 2
   5    2   19 1
   6    3    4 1
   7    3   20 1
   8    4    5 1
   9    4   18 1
  10    4   21 1
  11    5   22 1
  12    5   23 1
  13    5   24 1
  14    7    8 1
  15    7   25 1
  16    8    9 1
  17    8   17 1
  18    8   26 1
  19    9   10 1
  20    9   27 1
  21    9   28 1
  22   10   11 1
  23   10   29 1
  24   10   30 1
  25   11   12 1
  26   11   31 1
  27   11   32 1
  28   12   13 ar
  29   12   17 ar
  30   13   14 ar
  31   13   33 1
  32   14   15 ar
  33   14   34 1
  34   15   16 ar
  35   15   35 1
  36   16   17 ar
  37   16   36 1
  38   18   37 1
  39   18   38 1
  40   18   39 1

#	End of record

