#	Name: ASD01814674
#	Creating user name:	WinNT
#	Creation time:	15. 06. 2019 19:32

#	Modifying user name:	WinNT
#	Modification time:	15. 06. 2019 19:32

#	Program:	/corina/corina34_cracker 3.40 0067  02.08.2006

@<TRIPOS>MOLECULE
ASD01814674
  51   54    0    0    0
SMALL
NO_CHARGES


@<TRIPOS>ATOM
   1 C1             0.2616     1.3039    -0.7101 C.2     
   2 N2            -1.0345     1.7241    -0.8645 N.pl3   
   3 N3            -1.8569     0.5949    -0.7961 N.2     
   4 C4            -1.1043    -0.4703    -0.6086 C.2     
   5 C5             0.2219    -0.0756    -0.5489 C.2     
   6 C6            -1.1716    -1.9677    -0.4351 C.3     
   7 N7             0.1991    -2.4597    -0.2659 N.am    
   8 C8             1.0848    -1.2933    -0.3393 C.3     
   9 C9            -1.3005     3.0513    -1.0441 C.2     
  10 C10           -0.2714     3.9329    -1.0663 C.2     
  11 C11            1.0410     3.4653    -0.9050 C.2     
  12 N12            1.2712     2.1841    -0.7387 N.2     
  13 C13            0.5742    -3.7411    -0.0826 C.2     
  14 C14           -0.4476    -4.7927     0.0809 C.ar    
  15 O15            1.7548    -4.0306    -0.0520 O.2     
  16 C16           -0.3379    -5.7268     1.1203 C.ar    
  17 C17           -1.3041    -6.7109     1.2645 C.ar    
  18 C18           -2.3691    -6.7692     0.3874 C.ar    
  19 C19           -2.4809    -5.8484    -0.6412 C.ar    
  20 C20           -1.5330    -4.8598    -0.7956 C.ar    
  21 O21            0.7091    -5.6685     1.9810 O.3     
  22 C22           -0.5351     5.4035    -1.2633 C.3     
  23 C23            2.1921     4.4377    -0.9283 C.3     
  24 C24           -2.7193     3.5293    -1.2157 C.3     
  25 C25            0.7259    -6.6195     3.0475 C.3     
  26 C26            2.1624    -6.8098     3.5385 C.3     
  27 C27           -0.1434    -6.1100     4.1988 C.3     
  28 H28           -1.7630    -2.2111     0.4476 H       
  29 H29           -1.6208    -2.4220    -1.3183 H       
  30 H30            1.7758    -1.4048    -1.1749 H       
  31 H31            1.6426    -1.1950     0.5920 H       
  32 H32           -1.2234    -7.4329     2.0637 H       
  33 H33           -3.1190    -7.5376     0.5039 H       
  34 H34           -3.3170    -5.9026    -1.3227 H       
  35 H35           -1.6267    -4.1410    -1.5962 H       
  36 H36           -0.6807     5.8796    -0.2937 H       
  37 H37            0.3158     5.8607    -1.7684 H       
  38 H38           -1.4309     5.5339    -1.8704 H       
  39 H39            2.3878     4.7933     0.0833 H       
  40 H40            3.0805     3.9397    -1.3166 H       
  41 H41            1.9405     5.2833    -1.5684 H       
  42 H42           -3.1436     3.7657    -0.2399 H       
  43 H43           -2.7289     4.4214    -1.8419 H       
  44 H44           -3.3116     2.7465    -1.6895 H       
  45 H45            0.3346    -7.5723     2.6909 H       
  46 H46            2.5537    -5.8570     3.8951 H       
  47 H47            2.1752    -7.5351     4.3520 H       
  48 H48            2.7817    -7.1727     2.7183 H       
  49 H49            0.2479    -5.1572     4.5554 H       
  50 H50           -1.1668    -5.9744     3.8490 H       
  51 H51           -0.1306    -6.8354     5.0123 H       
@<TRIPOS>BOND
   1    1    5 2
   2    1   12 1
   3    1    2 1
   4    2    3 1
   5    2    9 1
   6    3    4 2
   7    4    6 1
   8    4    5 1
   9    5    8 1
  10    6    7 1
  11    6   28 1
  12    6   29 1
  13    7    8 1
  14    7   13 am
  15    8   30 1
  16    8   31 1
  17    9   10 2
  18    9   24 1
  19   10   11 1
  20   10   22 1
  21   11   12 2
  22   11   23 1
  23   13   14 1
  24   13   15 2
  25   14   16 ar
  26   14   20 ar
  27   16   17 ar
  28   16   21 1
  29   17   18 ar
  30   17   32 1
  31   18   19 ar
  32   18   33 1
  33   19   20 ar
  34   19   34 1
  35   20   35 1
  36   21   25 1
  37   22   36 1
  38   22   37 1
  39   22   38 1
  40   23   39 1
  41   23   40 1
  42   23   41 1
  43   24   42 1
  44   24   43 1
  45   24   44 1
  46   25   26 1
  47   25   27 1
  48   25   45 1
  49   26   46 1
  50   26   47 1
  51   26   48 1
  52   27   49 1
  53   27   50 1
  54   27   51 1

#	End of record

