#	Name: ASD09200004
#	Creating user name:	WinNT
#	Creation time:	15. 06. 2019 21:21

#	Modifying user name:	WinNT
#	Modification time:	15. 06. 2019 21:21

#	Program:	/corina/corina34_cracker 3.40 0067  02.08.2006

@<TRIPOS>MOLECULE
ASD09200004
  44   45    0    0    0
SMALL
NO_CHARGES


@<TRIPOS>ATOM
   1 C1            -0.0168     1.4034     0.0532 C.ar    
   2 C2             0.0025    -0.0032     0.0892 C.ar    
   3 C3             1.2152    -0.6321     0.1152 C.ar    
   4 C4             2.3883     0.1195     0.1056 C.ar    
   5 N5             2.3662     1.4296     0.0720 N.ar    
   6 C6             1.2134     2.1052     0.0453 C.ar    
   7 C7             1.2011     3.5147     0.0092 C.ar    
   8 C8            -0.0189     4.1871    -0.0180 C.ar    
   9 C9            -1.2297     3.4685    -0.0094 C.ar    
  10 C10           -1.2321     2.1126     0.0310 C.ar    
  11 O11            2.3658     4.2094     0.0013 O.3     
  12 N12           -0.0405     5.5496    -0.0525 N.2     
  13 N13           -1.1677     6.1764    -0.0777 N.2     
  14 C14           -1.1893     7.5418    -0.1124 C.ar    
  15 S15           -2.7609     1.2368     0.0472 S.o2    
  16 O16           -3.0451     0.9147     1.4370 O.co2   
  17 O17           -3.7605     2.1272    -0.5223 O.co2   
  18 O18           -2.5690     0.0431    -0.7617 O.co2   
  19 C19           -2.4179     9.6130    -0.1692 C.ar    
  20 C20           -2.4040     8.2110    -0.1336 C.ar    
  21 C21            0.0217     8.2602    -0.1204 C.ar    
  22 C22            0.0254     9.6164    -0.1546 C.ar    
  23 C23           -1.1909    10.3240    -0.1826 C.ar    
  24 C24           -1.2112    11.7280    -0.2188 C.ar    
  25 C25           -2.4031    12.3858    -0.2403 C.ar    
  26 C26           -3.6090    11.6875    -0.2271 C.ar    
  27 C27           -3.6297    10.3272    -0.1922 C.ar    
  28 S28           -2.4211    14.1472    -0.2850 S.o2    
  29 O29           -3.6345    14.5716     0.3959 O.co2   
  30 O30           -1.2221    14.5966     0.4051 O.co2   
  31 O31           -2.4197    14.5312    -1.6881 O.co2   
  32 H32           -0.9166    -0.5704     0.0965 H       
  33 H33            1.2643    -1.7106     0.1435 H       
  34 H34            3.3402    -0.3904     0.1268 H       
  35 H35           -2.1677     4.0033    -0.0307 H       
  36 H36            2.7112     4.3883    -0.8840 H       
  37 H37           -3.3311     7.6572    -0.1233 H       
  38 H38            0.9594     7.7248    -0.0987 H       
  39 H39            0.9624    10.1535    -0.1600 H       
  40 H40           -0.2850    12.2835    -0.2291 H       
  41 H41           -4.5406    12.2337    -0.2444 H       
  42 H42           -4.5715     9.7987    -0.1827 H       
  43 Na43           8.3402    19.5966     6.4370 Du      
  44 Na44          13.3402    24.5966    11.4370 Du      
@<TRIPOS>BOND
   1    1    2 ar
   2    1    6 ar
   3    1   10 ar
   4    2    3 ar
   5    2   32 1
   6    3    4 ar
   7    3   33 1
   8    4    5 ar
   9    4   34 1
  10    5    6 ar
  11    6    7 ar
  12    7    8 ar
  13    7   11 1
  14    8    9 ar
  15    8   12 1
  16    9   10 ar
  17    9   35 1
  18   10   15 1
  19   11   36 1
  20   12   13 2
  21   13   14 1
  22   14   21 ar
  23   14   20 ar
  24   15   16 ar
  25   15   17 ar
  26   15   18 ar
  27   19   20 ar
  28   19   23 ar
  29   19   27 ar
  30   20   37 1
  31   21   22 ar
  32   21   38 1
  33   22   23 ar
  34   22   39 1
  35   23   24 ar
  36   24   25 ar
  37   24   40 1
  38   25   26 ar
  39   25   28 1
  40   26   27 ar
  41   26   41 1
  42   27   42 1
  43   28   29 ar
  44   28   30 ar
  45   28   31 ar

#	End of record

