#	Name: ASD03330977
#	Creating user name:	WinNT
#	Creation time:	15. 06. 2019 20:38

#	Modifying user name:	WinNT
#	Modification time:	15. 06. 2019 20:38

#	Program:	/corina/corina34_cracker 3.40 0067  02.08.2006

@<TRIPOS>MOLECULE
ASD03330977
  67   70    0    0    0
SMALL
NO_CHARGES


@<TRIPOS>ATOM
   1 N1            -0.0164     1.3554     0.0653 N.pl3   
   2 C2             0.0029    -0.0038     0.0363 C.2     
   3 C3             1.2395    -0.8639     0.0226 C.3     
   4 N4             2.1702    -0.3869     1.0575 N.3     
   5 C5             3.0625     0.6480     0.5319 C.3     
   6 C6             2.3511     1.5031    -0.5129 C.3     
   7 C7             1.1625     2.2238     0.1291 C.3     
   8 C8            -1.3235     1.7462     0.0361 C.2     
   9 N9            -2.0806     0.6745     0.0088 N.2     
  10 C10           -1.2924    -0.4229     0.0109 C.2     
  11 C11           -1.7523    -1.8227    -0.0108 C.2     
  12 O12           -0.9416    -2.7292    -0.0068 O.2     
  13 N13           -3.0714    -2.0983    -0.0352 N.am    
  14 C14            2.9365    -1.5015     1.6304 C.3     
  15 C15           -4.9196    -3.5600    -0.6900 C.3     
  16 C16           -3.5286    -3.4900    -0.0568 C.3     
  17 C17           -3.5917    -4.0284     1.3739 C.3     
  18 C18           -4.0692    -5.4818     1.3513 C.3     
  19 N19           -4.8851    -2.9358    -2.0149 N.am    
  20 C20           -4.6114    -3.5921    -3.1556 C.2     
  21 C21           -4.6528    -2.6371    -4.3281 C.3     
  22 C22           -4.5811    -1.2357    -3.6784 C.3     
  23 C23           -5.1510    -1.5149    -2.2680 C.3     
  24 O24           -4.3666    -4.7774    -3.2334 O.2     
  25 C25           -2.2007    -3.9583     2.0071 C.3     
  26 C26           -4.5685    -3.1834     2.1941 C.3     
  27 C27           -1.8064     3.1442     0.0359 C.ar    
  28 C28           -2.7906     3.5466    -0.8709 C.ar    
  29 C29           -3.2374     4.8545    -0.8650 C.ar    
  30 C30           -2.7125     5.7633     0.0355 C.ar    
  31 C31           -1.7368     5.3704     0.9360 C.ar    
  32 C32           -1.2856     4.0653     0.9447 C.ar    
  33 F33           -3.3037     2.6596    -1.7513 F       
  34 Cl34          -1.0839     6.5197     2.0613 Cl      
  35 H35            0.9658    -1.8988     0.2277 H       
  36 H36            1.7174    -0.7992    -0.9549 H       
  37 H37            3.3934     1.2857     1.3516 H       
  38 H38            3.9312     0.1737     0.0752 H       
  39 H39            3.0477     2.2393    -0.9140 H       
  40 H40            1.9944     0.8651    -1.3214 H       
  41 H41            0.9629     3.1495    -0.4106 H       
  42 H42            1.3926     2.4500     1.1702 H       
  43 H43           -3.7180    -1.3753    -0.0384 H       
  44 H44            3.4549    -2.0339     0.8329 H       
  45 H45            3.6655    -1.1134     2.3418 H       
  46 H46            2.2578    -2.1842     2.1416 H       
  47 H47           -5.2225    -4.6026    -0.7873 H       
  48 H48           -5.6335    -3.0318    -0.0580 H       
  49 H49           -2.8327    -4.0920    -0.6411 H       
  50 H50           -3.3733    -6.0838     0.7670 H       
  51 H51           -4.1142    -5.8653     2.3706 H       
  52 H52           -5.0602    -5.5317     0.9003 H       
  53 H53           -3.7959    -2.7986    -4.9821 H       
  54 H54           -5.5841    -2.7535    -4.8823 H       
  55 H55           -3.5512    -0.8829    -3.6246 H       
  56 H56           -5.2081    -0.5242    -4.2158 H       
  57 H57           -6.2237    -1.3222    -2.2467 H       
  58 H58           -4.6415    -0.8981    -1.5277 H       
  59 H59           -1.8605    -2.9229     2.0232 H       
  60 H60           -2.2457    -4.3419     3.0264 H       
  61 H61           -1.5048    -4.5603     1.4228 H       
  62 H62           -5.5596    -3.2332     1.7431 H       
  63 H63           -4.6135    -3.5669     3.2134 H       
  64 H64           -4.2284    -2.1479     2.2103 H       
  65 H65           -3.9977     5.1675    -1.5653 H       
  66 H66           -3.0649     6.7842     0.0362 H       
  67 H67           -0.5280     3.7594     1.6510 H       
@<TRIPOS>BOND
   1    1    2 1
   2    1    7 1
   3    1    8 1
   4    2    3 1
   5    2   10 2
   6    3    4 1
   7    3   35 1
   8    3   36 1
   9    4    5 1
  10    4   14 1
  11    5    6 1
  12    5   37 1
  13    5   38 1
  14    6    7 1
  15    6   39 1
  16    6   40 1
  17    7   41 1
  18    7   42 1
  19    8    9 2
  20    8   27 1
  21    9   10 1
  22   10   11 1
  23   11   12 2
  24   11   13 am
  25   13   16 1
  26   13   43 1
  27   14   44 1
  28   14   45 1
  29   14   46 1
  30   15   19 1
  31   15   16 1
  32   15   47 1
  33   15   48 1
  34   16   17 1
  35   16   49 1
  36   17   18 1
  37   17   25 1
  38   17   26 1
  39   18   50 1
  40   18   51 1
  41   18   52 1
  42   19   20 am
  43   19   23 1
  44   20   21 1
  45   20   24 2
  46   21   22 1
  47   21   53 1
  48   21   54 1
  49   22   23 1
  50   22   55 1
  51   22   56 1
  52   23   57 1
  53   23   58 1
  54   25   59 1
  55   25   60 1
  56   25   61 1
  57   26   62 1
  58   26   63 1
  59   26   64 1
  60   27   28 ar
  61   27   32 ar
  62   28   29 ar
  63   28   33 1
  64   29   30 ar
  65   29   65 1
  66   30   31 ar
  67   30   66 1
  68   31   32 ar
  69   31   34 1
  70   32   67 1

#	End of record

