#	Name: ASD01881910
#	Creating user name:	WinNT
#	Creation time:	15. 06. 2019 19:43

#	Modifying user name:	WinNT
#	Modification time:	15. 06. 2019 19:43

#	Program:	/corina/corina34_cracker 3.40 0067  02.08.2006

@<TRIPOS>MOLECULE
ASD01881910
  46   49    0    0    0
SMALL
NO_CHARGES


@<TRIPOS>ATOM
   1 N1             0.4481     0.1661     0.9385 N.pl3   
   2 N2             0.6764    -1.0967     1.0506 N.2     
   3 N3             1.9317    -1.3645     0.9611 N.2     
   4 C4             2.6182    -0.2190     0.7755 C.ar    
   5 C5             1.6516     0.8043     0.7581 C.ar    
   6 C6             3.9681     0.1051     0.6150 C.ar    
   7 C7             4.3337     1.4253     0.4415 C.ar    
   8 C8             3.3677     2.4287     0.4261 C.ar    
   9 C9             2.0441     2.1247     0.5813 C.ar    
  10 O10            5.6455     1.7480     0.2851 O.3     
  11 C11            5.9568     3.1316     0.1099 C.3     
  12 C12            7.4694     3.2979    -0.0487 C.3     
  13 N13            7.9159     2.5901    -1.2560 N.3     
  14 C14            9.3492     2.8055    -1.4925 C.3     
  15 C15            9.8091     1.9407    -2.6684 C.3     
  16 C16            9.0048     2.3154    -3.9164 C.3     
  17 C17            7.5128     2.1283    -3.6277 C.3     
  18 C18            7.1195     2.9876    -2.4239 C.3     
  19 F19            9.2528     3.6516    -4.2487 F       
  20 F20            9.3821     1.4899    -4.9810 F       
  21 C21           -0.8671     0.8095     0.9884 C.3     
  22 C22           -1.1971     1.1840     2.4347 C.3     
  23 C23           -2.4826     1.9753     2.6839 C.3     
  24 C24           -2.4023     0.5007     3.0840 C.3     
  25 Br25           5.2834    -1.2534     0.6357 Br      
  26 H26            3.6676     3.4572     0.2899 H       
  27 H27            1.3040     2.9111     0.5674 H       
  28 H28            5.4545     3.5070    -0.7816 H       
  29 H29            5.6189     3.6931     0.9809 H       
  30 H30            7.7111     4.3570    -0.1381 H       
  31 H31            7.9741     2.8825     0.8236 H       
  32 H32            9.5253     3.8560    -1.7235 H       
  33 H33            9.9099     2.5313    -0.5989 H       
  34 H34           10.8694     2.1125    -2.8537 H       
  35 H35            9.6459     0.8891    -2.4325 H       
  36 H36            6.9325     2.4341    -4.4982 H       
  37 H37            7.3135     1.0797    -3.4068 H       
  38 H38            6.0608     2.8458    -2.2068 H       
  39 H39            7.3061     4.0373    -2.6506 H       
  40 H40           -0.8547     1.7097     0.3739 H       
  41 H41           -1.6228     0.1214     0.6098 H       
  42 H42           -0.3396     1.4036     3.0708 H       
  43 H43           -2.4711     2.7152     3.4841 H       
  44 H44           -3.0933     2.2291     1.8174 H       
  45 H45           -2.9601    -0.2156     2.4807 H       
  46 H46           -2.3378     0.2705     4.1475 H       
@<TRIPOS>BOND
   1    1    2 1
   2    1    5 1
   3    1   21 1
   4    2    3 2
   5    3    4 1
   6    4    5 ar
   7    4    6 ar
   8    5    9 ar
   9    6    7 ar
  10    6   25 1
  11    7    8 ar
  12    7   10 1
  13    8    9 ar
  14    8   26 1
  15    9   27 1
  16   10   11 1
  17   11   12 1
  18   11   28 1
  19   11   29 1
  20   12   13 1
  21   12   30 1
  22   12   31 1
  23   13   14 1
  24   13   18 1
  25   14   15 1
  26   14   32 1
  27   14   33 1
  28   15   16 1
  29   15   34 1
  30   15   35 1
  31   16   17 1
  32   16   19 1
  33   16   20 1
  34   17   18 1
  35   17   36 1
  36   17   37 1
  37   18   38 1
  38   18   39 1
  39   21   22 1
  40   21   40 1
  41   21   41 1
  42   22   23 1
  43   22   24 1
  44   22   42 1
  45   23   24 1
  46   23   43 1
  47   23   44 1
  48   24   45 1
  49   24   46 1

#	End of record

