#	Name: ASD01948301
#	Creating user name:	WinNT
#	Creation time:	15. 06. 2019 20:14

#	Modifying user name:	WinNT
#	Modification time:	15. 06. 2019 20:14

#	Program:	/corina/corina34_cracker 3.40 0067  02.08.2006

@<TRIPOS>MOLECULE
ASD01948301
  43   44    0    0    0
SMALL
NO_CHARGES


@<TRIPOS>ATOM
   1 C1             0.6458     1.6094    -0.7137 C.2     
   2 N2             1.1498     0.3853    -1.0425 N.am    
   3 C3             2.4751     0.1527    -1.0298 C.2     
   4 C4             3.3663     1.1703    -0.6764 C.2     
   5 C5             2.8685     2.4181    -0.3408 C.2     
   6 C6             1.4685     2.6263    -0.3652 C.2     
   7 C7             4.8509     0.9122    -0.6604 C.3     
   8 C8             3.0649     4.6916    -1.9462 C.ar    
   9 C9             3.7781     4.6115    -0.7576 C.ar    
  10 N10            3.7264     3.4456     0.0140 N.pl3   
  11 C11            3.1181     5.8438    -2.7062 C.ar    
  12 C12            3.8813     6.9181    -2.2854 C.ar    
  13 C13            4.5933     6.8433    -1.1018 C.ar    
  14 C14            4.5445     5.6929    -0.3360 C.ar    
  15 N15            0.9357     3.8819    -0.0299 N.am    
  16 S16           -0.6798     4.1788    -0.2404 S.o2    
  17 N17           -0.9454     4.3128    -1.8695 N.am    
  18 O18            2.9015    -0.9528    -1.3280 O.2     
  19 C19            0.2327    -0.6946    -1.4152 C.3     
  20 F20            5.2398     5.6197     0.8200 F       
  21 I21            3.9589     8.6623    -3.4434 I       
  22 C22           -1.4725     3.1718    -2.6220 C.3     
  23 C23           -0.6532     5.5724    -2.5581 C.3     
  24 O24           -1.3617     3.0060     0.1822 O.2     
  25 O25           -0.9270     5.4639     0.3135 O.2     
  26 H26           -0.4219     1.7704    -0.7360 H       
  27 H27            5.0386    -0.1421    -0.8635 H       
  28 H28            5.3338     1.5210    -1.4248 H       
  29 H29            5.2542     1.1710     0.3186 H       
  30 H30            2.4724     3.8519    -2.2784 H       
  31 H31            4.2915     3.3570     0.7974 H       
  32 H32            2.5632     5.9059    -3.6307 H       
  33 H33            5.1885     7.6836    -0.7761 H       
  34 H34            1.5141     4.5751     0.3249 H       
  35 H35            0.0650    -0.6734    -2.4920 H       
  36 H36            0.6674    -1.6538    -1.1340 H       
  37 H37           -0.7168    -0.5601    -0.8970 H       
  38 H38           -2.5618     3.2111    -2.6258 H       
  39 H39           -1.1039     3.2110    -3.6470 H       
  40 H40           -1.1441     2.2443    -2.1530 H       
  41 H41           -0.1895     6.2692    -1.8598 H       
  42 H42            0.0273     5.3833    -3.3884 H       
  43 H43           -1.5799     6.0020    -2.9385 H       
@<TRIPOS>BOND
   1    1    2 1
   2    1    6 2
   3    1   26 1
   4    2    3 am
   5    2   19 1
   6    3    4 1
   7    3   18 2
   8    4    5 2
   9    4    7 1
  10    5    6 1
  11    5   10 1
  12    6   15 1
  13    7   27 1
  14    7   28 1
  15    7   29 1
  16    8    9 ar
  17    8   11 ar
  18    8   30 1
  19    9   10 1
  20    9   14 ar
  21   10   31 1
  22   11   12 ar
  23   11   32 1
  24   12   13 ar
  25   12   21 1
  26   13   14 ar
  27   13   33 1
  28   14   20 1
  29   15   16 am
  30   15   34 1
  31   16   17 am
  32   16   24 2
  33   16   25 2
  34   17   22 1
  35   17   23 1
  36   19   35 1
  37   19   36 1
  38   19   37 1
  39   22   38 1
  40   22   39 1
  41   22   40 1
  42   23   41 1
  43   23   42 1
  44   23   43 1

#	End of record

