#	Name: ASD01901181
#	Creating user name:	WinNT
#	Creation time:	15. 06. 2019 19:53

#	Modifying user name:	WinNT
#	Modification time:	15. 06. 2019 19:53

#	Program:	/corina/corina34_cracker 3.40 0067  02.08.2006

@<TRIPOS>MOLECULE
ASD01901181
  52   55    0    0    0
SMALL
NO_CHARGES


@<TRIPOS>ATOM
   1 C1             0.1113     1.4017     0.8908 C.ar    
   2 C2             0.1452     0.0263     0.9880 C.ar    
   3 C3             1.3584    -0.6379     1.0324 C.ar    
   4 C4             2.5456     0.0712     0.9798 C.ar    
   5 C5             2.5274     1.4468     0.8825 C.ar    
   6 C6             1.3061     2.1244     0.8367 C.ar    
   7 C7             1.2791     3.5526     0.7357 C.1     
   8 C8             1.2570     4.7235     0.6529 C.1     
   9 C9             1.2300     6.1517     0.5519 C.ar    
  10 C10            2.4259     6.8731     0.4979 C.ar    
  11 C11            2.3960     8.2474     0.4008 C.ar    
  12 C12            1.1792     8.9167     0.3570 C.ar    
  13 C13           -0.0139     8.2031     0.4104 C.ar    
  14 C14            0.0072     6.8278     0.5013 C.ar    
  15 N15            1.1536    10.3141     0.2592 N.am    
  16 C16            1.1386    10.8923    -0.9533 C.2     
  17 N17            0.8758    12.2004    -1.1055 N.am    
  18 C18            0.4731    13.0248     0.0355 C.3     
  19 C19            1.2172    12.5604     1.2897 C.3     
  20 C20            1.1389    11.0568     1.3811 C.2     
  21 O21            1.3689    10.2154    -1.9361 O.2     
  22 O22            1.0665    10.5175     2.4646 O.2     
  23 C23            0.8187    14.4877    -0.2499 C.3     
  24 C24           -1.0120    12.8934     0.2552 C.ar    
  25 C25            0.9941    12.8113    -2.4318 C.3     
  26 C26           -1.7936    12.2395    -0.6788 C.ar    
  27 C27           -3.1559    12.1191    -0.4773 C.ar    
  28 C28           -3.7365    12.6522     0.6583 C.ar    
  29 C29           -2.9546    13.3053     1.5927 C.ar    
  30 C30           -1.5917    13.4220     1.3934 C.ar    
  31 Cl31          -1.5310     9.0452     0.3558 Cl      
  32 H32           -0.8362     1.9185     0.8521 H       
  33 H33           -0.7773    -0.5336     1.0299 H       
  34 H34            1.3788    -1.7150     1.1089 H       
  35 H35            3.4887    -0.4539     1.0153 H       
  36 H36            3.4548     1.9989     0.8422 H       
  37 H37            3.3724     6.3541     0.5326 H       
  38 H38            3.3198     8.8052     0.3591 H       
  39 H39           -0.9191     6.2739     0.5383 H       
  40 H40            2.2602    12.8714     1.2305 H       
  41 H41            0.7542    13.0019     2.1722 H       
  42 H42            1.8929    14.5830    -0.4084 H       
  43 H43            0.2888    14.8185    -1.1431 H       
  44 H44            0.5205    15.1036     0.5985 H       
  45 H45            1.3016    12.0551    -3.1540 H       
  46 H46            0.0306    13.2261    -2.7280 H       
  47 H47            1.7381    13.6073    -2.4001 H       
  48 H48           -1.3401    11.8230    -1.5660 H       
  49 H49           -3.7667    11.6088    -1.2073 H       
  50 H50           -4.8009    12.5587     0.8154 H       
  51 H51           -3.4083    13.7221     2.4798 H       
  52 H52           -0.9804    13.9290     2.1252 H       
@<TRIPOS>BOND
   1    1    2 ar
   2    1    6 ar
   3    1   32 1
   4    2    3 ar
   5    2   33 1
   6    3    4 ar
   7    3   34 1
   8    4    5 ar
   9    4   35 1
  10    5    6 ar
  11    5   36 1
  12    6    7 1
  13    7    8 3
  14    8    9 1
  15    9   10 ar
  16    9   14 ar
  17   10   11 ar
  18   10   37 1
  19   11   12 ar
  20   11   38 1
  21   12   13 ar
  22   12   15 1
  23   13   14 ar
  24   13   31 1
  25   14   39 1
  26   15   16 am
  27   15   20 am
  28   16   17 am
  29   16   21 2
  30   17   25 1
  31   17   18 1
  32   18   19 1
  33   18   23 1
  34   18   24 1
  35   19   20 1
  36   19   40 1
  37   19   41 1
  38   20   22 2
  39   23   42 1
  40   23   43 1
  41   23   44 1
  42   24   26 ar
  43   24   30 ar
  44   25   45 1
  45   25   46 1
  46   25   47 1
  47   26   27 ar
  48   26   48 1
  49   27   28 ar
  50   27   49 1
  51   28   29 ar
  52   28   50 1
  53   29   30 ar
  54   29   51 1
  55   30   52 1

#	End of record

