#	Name: ASD03330612
#	Creating user name:	WinNT
#	Creation time:	15. 06. 2019 20:37

#	Modifying user name:	WinNT
#	Modification time:	15. 06. 2019 20:37

#	Program:	/corina/corina34_cracker 3.40 0067  02.08.2006

@<TRIPOS>MOLECULE
ASD03330612
  75   78    0    0    0
SMALL
NO_CHARGES


@<TRIPOS>ATOM
   1 C1            -1.2080     1.4716     1.1015 C.2     
   2 N2            -1.3922     0.1381     1.2347 N.pl3   
   3 C3             0.1201     1.7153     1.2907 C.2     
   4 N4             0.7271     0.5319     1.5181 N.2     
   5 C5            -0.1727    -0.4231     1.4807 C.2     
   6 C6             0.0907    -1.8653     1.6733 C.ar    
   7 C7             0.7754     3.0350     1.2531 C.2     
   8 O8             0.1174     4.0347     1.0371 O.2     
   9 C9             2.7551     4.4456     1.4209 C.3     
  10 N10            2.1038     3.1339     1.4582 N.am    
  11 C11            3.1002     4.8027    -0.0263 C.3     
  12 C12            1.8322     4.7498    -0.8809 C.3     
  13 C13            3.6907     6.2132    -0.0767 C.3     
  14 C14            4.1227     3.8020    -0.5685 C.3     
  15 C15            4.0176     4.4032     2.2425 C.2     
  16 N16            4.6604     5.5472     2.5500 N.am    
  17 O17            4.4554     3.3395     2.6271 O.2     
  18 C18            5.9257     5.5012     3.2869 C.3     
  19 C19           -2.6796    -0.5559     1.1424 C.3     
  20 C20           -3.4312    -0.0593    -0.0965 C.3     
  21 C21           -4.2525     1.1757     0.2601 C.3     
  22 N22           -3.5730     1.9830     1.2755 N.3     
  23 C23           -2.2801     2.4816     0.7838 C.3     
  24 C24           -4.4271     3.0899     1.7263 C.3     
  25 C25            1.3279    -2.4033     1.3123 C.ar    
  26 C26            1.5733    -3.7458     1.4911 C.ar    
  27 C27            0.5846    -4.5703     2.0341 C.ar    
  28 C28           -0.6529    -4.0316     2.3956 C.ar    
  29 C29           -0.8957    -2.6880     2.2214 C.ar    
  30 C30            0.8474    -6.0114     2.2257 C.2     
  31 O31            0.5008    -6.5612     3.2531 O.2     
  32 N32            1.4715    -6.7166     1.2615 N.am    
  33 C33            1.6604    -8.1704     1.3882 C.3     
  34 C34            1.1651    -8.8365     0.0994 C.3     
  35 O35            1.7898    -8.2106    -1.0240 O.3     
  36 C36            1.4726    -6.8246    -1.1730 C.3     
  37 C37            1.9786    -6.0564     0.0481 C.3     
  38 H38            2.0806     5.1980     1.8298 H       
  39 H39            2.6286     2.3366     1.6305 H       
  40 H40            1.1037     5.4627    -0.4946 H       
  41 H41            2.0781     5.0042    -1.9119 H       
  42 H42            1.4115     3.7449    -0.8450 H       
  43 H43            4.5908     6.2524     0.5368 H       
  44 H44            3.9419     6.4653    -1.1069 H       
  45 H45            2.9600     6.9268     0.3042 H       
  46 H46            3.7020     2.7971    -0.5326 H       
  47 H47            4.3686     4.0564    -1.5995 H       
  48 H48            5.0261     3.8397     0.0403 H       
  49 H49            4.2851     6.4010     2.2835 H       
  50 H50            5.7667     5.0208     4.2524 H       
  51 H51            6.6590     4.9329     2.7147 H       
  52 H52            6.2929     6.5157     3.4420 H       
  53 H53           -2.5096    -1.6294     1.0593 H       
  54 H54           -3.2703    -0.3478     2.0345 H       
  55 H55           -2.7147     0.1948    -0.8775 H       
  56 H56           -4.0955    -0.8449    -0.4566 H       
  57 H57           -4.4003     1.7782    -0.6362 H       
  58 H58           -5.2234     0.8616     0.6433 H       
  59 H59           -2.0452     3.4278     1.2712 H       
  60 H60           -2.3331     2.6295    -0.2948 H       
  61 H61           -5.3452     2.6889     2.1556 H       
  62 H62           -3.8982     3.6732     2.4801 H       
  63 H63           -4.6715     3.7290     0.8779 H       
  64 H64            2.0921    -1.7660     0.8926 H       
  65 H65            2.5298    -4.1620     1.2113 H       
  66 H66           -1.4173    -4.6687     2.8154 H       
  67 H67           -1.8521    -2.2715     2.5011 H       
  68 H68            2.7178    -8.3920     1.5330 H       
  69 H69            1.0872    -8.5425     2.2374 H       
  70 H70            1.4216    -9.8958     0.1152 H       
  71 H71            0.0836    -8.7241     0.0239 H       
  72 H72            1.9503    -6.4365    -2.0726 H       
  73 H73            0.3921    -6.7049    -1.2531 H       
  74 H74            1.6187    -5.0283     0.0100 H       
  75 H75            3.0685    -6.0641     0.0609 H       
@<TRIPOS>BOND
   1    1    2 1
   2    1    3 2
   3    1   23 1
   4    2   19 1
   5    2    5 1
   6    3    4 1
   7    3    7 1
   8    4    5 2
   9    5    6 1
  10    6   25 ar
  11    6   29 ar
  12    7    8 2
  13    7   10 am
  14    9   10 1
  15    9   11 1
  16    9   15 1
  17    9   38 1
  18   10   39 1
  19   11   12 1
  20   11   13 1
  21   11   14 1
  22   12   40 1
  23   12   41 1
  24   12   42 1
  25   13   43 1
  26   13   44 1
  27   13   45 1
  28   14   46 1
  29   14   47 1
  30   14   48 1
  31   15   16 am
  32   15   17 2
  33   16   18 1
  34   16   49 1
  35   18   50 1
  36   18   51 1
  37   18   52 1
  38   19   20 1
  39   19   53 1
  40   19   54 1
  41   20   21 1
  42   20   55 1
  43   20   56 1
  44   21   22 1
  45   21   57 1
  46   21   58 1
  47   22   23 1
  48   22   24 1
  49   23   59 1
  50   23   60 1
  51   24   61 1
  52   24   62 1
  53   24   63 1
  54   25   26 ar
  55   25   64 1
  56   26   27 ar
  57   26   65 1
  58   27   28 ar
  59   27   30 1
  60   28   29 ar
  61   28   66 1
  62   29   67 1
  63   30   31 2
  64   30   32 am
  65   32   33 1
  66   32   37 1
  67   33   34 1
  68   33   68 1
  69   33   69 1
  70   34   35 1
  71   34   70 1
  72   34   71 1
  73   35   36 1
  74   36   37 1
  75   36   72 1
  76   36   73 1
  77   37   74 1
  78   37   75 1

#	End of record

