#	Name: ASD00170781
#	Creating user name:	WinNT
#	Creation time:	15. 06. 2019 18:32

#	Modifying user name:	WinNT
#	Modification time:	15. 06. 2019 18:32

#	Program:	/corina/corina34_cracker 3.40 0067  02.08.2006

@<TRIPOS>MOLECULE
ASD00170781
  50   53    0    0    0
SMALL
NO_CHARGES


@<TRIPOS>ATOM
   1 C1            -0.0258     1.3208     0.2544 C.2     
   2 C2             0.0019    -0.0024     0.1980 C.2     
   3 S3            -1.5936    -0.6484    -0.1415 S.3     
   4 C4            -2.2933     0.9044    -0.2047 C.2     
   5 C5            -1.3456     1.8733     0.0299 C.2     
   6 N6            -3.6280     1.1549    -0.4518 N.pl3   
   7 C7            -1.6372     3.3064     0.0421 C.2     
   8 C8            -1.8785     4.0008     1.3252 C.ar    
   9 O9            -1.6813     3.9278    -1.0042 O.2     
  10 C10           -2.0464     5.3865     1.3513 C.ar    
  11 C11           -2.2717     6.0285     2.5508 C.ar    
  12 C12           -2.3315     5.3013     3.7281 C.ar    
  13 C13           -2.1657     3.9263     3.7085 C.ar    
  14 C14           -1.9452     3.2726     2.5145 C.ar    
  15 Cl15          -2.6149     6.1166     5.2344 Cl      
  16 Br16           1.5532    -1.0541     0.4496 Br      
  17 C17            1.1914     2.1652     0.5307 C.3     
  18 N18            1.8508     2.5036    -0.7376 N.3     
  19 C19            2.8973     3.5149    -0.5337 C.3     
  20 C20            3.6116     3.7808    -1.8609 C.3     
  21 N21            2.6327     4.2339    -2.8589 N.3     
  22 C22            1.5862     3.2225    -3.0628 C.3     
  23 C23            0.8719     2.9567    -1.7356 C.3     
  24 C24            3.2599     4.5557    -4.0653 C.ar    
  25 C25            2.5074     5.0067    -5.1421 C.ar    
  26 C26            3.1302     5.3245    -6.3331 C.ar    
  27 C27            4.5022     5.1940    -6.4543 C.ar    
  28 C28            5.2544     4.7450    -5.3833 C.ar    
  29 C29            4.6378     4.4307    -4.1882 C.ar    
  30 Br30           5.3511     5.6296    -8.0870 Br      
  31 H31           -4.2251     0.4243    -0.6767 H       
  32 H32           -3.9689     2.0616    -0.4005 H       
  33 H33           -1.9996     5.9546     0.4340 H       
  34 H34           -2.4013     7.1005     2.5722 H       
  35 H35           -2.2130     3.3646     4.6297 H       
  36 H36           -1.8160     2.2005     2.5004 H       
  37 H37            0.8904     3.0811     1.0394 H       
  38 H38            1.8835     1.6091     1.1630 H       
  39 H39            2.4450     4.4386    -0.1728 H       
  40 H40            3.6167     3.1510     0.2000 H       
  41 H41            4.3690     4.5516    -1.7182 H       
  42 H42            4.0870     2.8634    -2.2081 H       
  43 H43            0.8669     3.5864    -3.7965 H       
  44 H44            2.0385     2.2988    -3.4237 H       
  45 H45            0.1146     2.1859    -1.8783 H       
  46 H46            0.3965     3.8741    -1.3884 H       
  47 H47            1.4363     5.1085    -5.0483 H       
  48 H48            2.5455     5.6749    -7.1709 H       
  49 H49            6.3253     4.6441    -5.4808 H       
  50 H50            5.2255     4.0803    -3.3526 H       
@<TRIPOS>BOND
   1    1    2 2
   2    1   17 1
   3    1    5 1
   4    2    3 1
   5    2   16 1
   6    3    4 1
   7    4    5 2
   8    4    6 1
   9    5    7 1
  10    6   31 1
  11    6   32 1
  12    7    8 1
  13    7    9 2
  14    8   10 ar
  15    8   14 ar
  16   10   11 ar
  17   10   33 1
  18   11   12 ar
  19   11   34 1
  20   12   13 ar
  21   12   15 1
  22   13   14 ar
  23   13   35 1
  24   14   36 1
  25   17   18 1
  26   17   37 1
  27   17   38 1
  28   18   19 1
  29   18   23 1
  30   19   20 1
  31   19   39 1
  32   19   40 1
  33   20   21 1
  34   20   41 1
  35   20   42 1
  36   21   22 1
  37   21   24 1
  38   22   23 1
  39   22   43 1
  40   22   44 1
  41   23   45 1
  42   23   46 1
  43   24   25 ar
  44   24   29 ar
  45   25   26 ar
  46   25   47 1
  47   26   27 ar
  48   26   48 1
  49   27   28 ar
  50   27   30 1
  51   28   29 ar
  52   28   49 1
  53   29   50 1

#	End of record

