#	Name: ASD00431467
#	Creating user name:	WinNT
#	Creation time:	15. 06. 2019 18:35

#	Modifying user name:	WinNT
#	Modification time:	15. 06. 2019 18:35

#	Program:	/corina/corina34_cracker 3.40 0067  02.08.2006

@<TRIPOS>MOLECULE
ASD00431467
  43   45    0    0    0
SMALL
NO_CHARGES


@<TRIPOS>ATOM
   1 C1            -0.1214     1.6528     0.0985 C.3     
   2 C2            -0.1209     0.1230     0.0719 C.3     
   3 O3             2.0857     2.2660    -1.0121 O.3     
   4 N4             3.1784     2.7011    -0.7318 N.2     
   5 C5             3.2812     2.9421     0.5547 C.2     
   6 C6             2.0250     2.5834     1.1244 C.2     
   7 C7             1.2987     2.1562     0.0682 C.2     
   8 S8             4.5711     3.7896     2.9972 S.3     
   9 C9             6.1798     4.3352     2.8059 C.2     
  10 N10            6.5339     4.2652     1.5597 N.2     
  11 C11            5.6412     3.8111     0.7077 C.2     
  12 C12            4.4596     3.4764     1.2670 C.2     
  13 O13            6.9717     4.7775     3.8117 O.3     
  14 C14            8.2633     5.0825     3.5197 C.ar    
  15 C15            8.5521     6.1466     2.6785 C.ar    
  16 C16            9.8706     6.4553     2.3831 C.ar    
  17 C17           10.8984     5.6994     2.9295 C.ar    
  18 C18           10.6083     4.6395     3.7669 C.ar    
  19 C19            9.2947     4.3330     4.0677 C.ar    
  20 O20           10.1568     7.4972     1.5587 O.3     
  21 C21           11.5346     7.8442     1.4061 C.3     
  22 C22           12.1080     7.1287     0.1813 C.3     
  23 C23           11.6617     9.3573     1.2187 C.3     
  24 N24           -0.8467     2.1626    -1.0729 N.3     
  25 H25           -0.6107     2.0002     1.0083 H       
  26 H26            0.3684    -0.2244    -0.8380 H       
  27 H27            0.4172    -0.2553     0.9410 H       
  28 H28           -1.1481    -0.2411     0.0938 H       
  29 H29            1.7235     2.6400     2.1600 H       
  30 H30            5.8370     3.7145    -0.3501 H       
  31 H31            7.7509     6.7334     2.2541 H       
  32 H32           11.9260     5.9396     2.6995 H       
  33 H33           11.4095     4.0523     4.1907 H       
  34 H34            9.0706     3.5070     4.7264 H       
  35 H35           12.0864     7.5406     2.2957 H       
  36 H36           13.1589     7.3934     0.0648 H       
  37 H37           12.0174     6.0507     0.3147 H       
  38 H38           11.5561     7.4323    -0.7083 H       
  39 H39           11.2531     9.8670     2.0913 H       
  40 H40           12.7126     9.6220     1.1023 H       
  41 H41           11.1098     9.6609     0.3292 H       
  42 H42           -0.3762     1.9082    -1.9284 H       
  43 H43           -1.8023     1.8388    -1.0756 H       
@<TRIPOS>BOND
   1    1    2 1
   2    1    7 1
   3    1   24 1
   4    1   25 1
   5    2   26 1
   6    2   27 1
   7    2   28 1
   8    3    4 1
   9    3    7 1
  10    4    5 2
  11    5    6 1
  12    5   12 1
  13    6    7 2
  14    6   29 1
  15    8    9 1
  16    8   12 1
  17    9   10 2
  18    9   13 1
  19   10   11 1
  20   11   12 2
  21   11   30 1
  22   13   14 1
  23   14   15 ar
  24   14   19 ar
  25   15   16 ar
  26   15   31 1
  27   16   17 ar
  28   16   20 1
  29   17   18 ar
  30   17   32 1
  31   18   19 ar
  32   18   33 1
  33   19   34 1
  34   20   21 1
  35   21   22 1
  36   21   23 1
  37   21   35 1
  38   22   36 1
  39   22   37 1
  40   22   38 1
  41   23   39 1
  42   23   40 1
  43   23   41 1
  44   24   42 1
  45   24   43 1

#	End of record

