#	Name: ASD03090065
#	Creating user name:	WinNT
#	Creation time:	15. 06. 2019 20:28

#	Modifying user name:	WinNT
#	Modification time:	15. 06. 2019 20:28

#	Program:	/corina/corina34_cracker 3.40 0067  02.08.2006

@<TRIPOS>MOLECULE
ASD03090065
  48   50    0    0    0
SMALL
NO_CHARGES


@<TRIPOS>ATOM
   1 O1            -0.1068     1.3647     0.0031 O.3     
   2 N2            -0.2663     0.1717     0.1164 N.2     
   3 C3             0.8664    -0.4628     0.2360 C.2     
   4 C4             1.8814     0.5116     0.1866 C.2     
   5 C5             1.1981     1.6908     0.0336 C.2     
   6 C6             2.5020     3.6239     1.0582 C.2     
   7 C7             1.7766     3.0423    -0.0762 C.2     
   8 O8             2.9796     4.7398     0.9676 O.2     
   9 N9             2.6397     2.9227     2.2009 N.am    
  10 C10            3.4136     3.4354     3.2470 C.ar    
  11 C11            3.4298     4.8017     3.4958 C.ar    
  12 C12            4.1947     5.3047     4.5299 C.ar    
  13 C13            4.9442     4.4496     5.3168 C.ar    
  14 C14            4.9307     3.0888     5.0714 C.ar    
  15 C15            4.1630     2.5787     4.0428 C.ar    
  16 C16            1.0529    -1.9496     0.3965 C.3     
  17 C17            1.6371     3.7528    -1.2341 C.2     
  18 N18            0.9636     3.2129    -2.2873 N.pl3   
  19 C19            0.8207     3.9408    -3.4735 C.ar    
  20 C20            0.1338     3.3904    -4.5481 C.ar    
  21 C21           -0.0068     4.1094    -5.7184 C.ar    
  22 C22            0.5382     5.3811    -5.8214 C.ar    
  23 C23            1.2248     5.9314    -4.7488 C.ar    
  24 C24            1.3606     5.2165    -3.5754 C.ar    
  25 O25            0.3997     6.0882    -6.9744 O.3     
  26 C26            0.9859     7.3910    -7.0108 C.3     
  27 C27            0.7287     8.0279    -8.3780 C.3     
  28 H28            2.9492     0.3647     0.2538 H       
  29 H29            2.2020     2.0625     2.2978 H       
  30 H30            2.8451     5.4702     2.8811 H       
  31 H31            4.2077     6.3671     4.7239 H       
  32 H32            5.5418     4.8455     6.1246 H       
  33 H33            5.5177     2.4237     5.6874 H       
  34 H34            4.1491     1.5153     3.8547 H       
  35 H35            1.1478    -2.4120    -0.5859 H       
  36 H36            1.9549    -2.1420     0.9774 H       
  37 H37            0.1907    -2.3701     0.9142 H       
  38 H38            2.0608     4.7429    -1.3145 H       
  39 H39            0.5830     2.3236    -2.2150 H       
  40 H40           -0.2899     2.4002    -4.4683 H       
  41 H41           -0.5408     3.6816    -6.5540 H       
  42 H42            1.6490     6.9213    -4.8300 H       
  43 H43            1.8907     5.6471    -2.7388 H       
  44 H44            0.5421     8.0110    -6.2319 H       
  45 H45            2.0600     7.3109    -6.8436 H       
  46 H46            1.1724     7.4079    -9.1569 H       
  47 H47           -0.3454     8.1080    -8.5452 H       
  48 H48            1.1758     9.0216    -8.4057 H       
@<TRIPOS>BOND
   1    1    2 1
   2    1    5 1
   3    2    3 2
   4    3    4 1
   5    3   16 1
   6    4    5 2
   7    4   28 1
   8    5    7 1
   9    6    7 1
  10    6    8 2
  11    6    9 am
  12    7   17 2
  13    9   10 1
  14    9   29 1
  15   10   11 ar
  16   10   15 ar
  17   11   12 ar
  18   11   30 1
  19   12   13 ar
  20   12   31 1
  21   13   14 ar
  22   13   32 1
  23   14   15 ar
  24   14   33 1
  25   15   34 1
  26   16   35 1
  27   16   36 1
  28   16   37 1
  29   17   18 1
  30   17   38 1
  31   18   19 1
  32   18   39 1
  33   19   20 ar
  34   19   24 ar
  35   20   21 ar
  36   20   40 1
  37   21   22 ar
  38   21   41 1
  39   22   23 ar
  40   22   25 1
  41   23   24 ar
  42   23   42 1
  43   24   43 1
  44   25   26 1
  45   26   27 1
  46   26   44 1
  47   26   45 1
  48   27   46 1
  49   27   47 1
  50   27   48 1

#	End of record

