#	Name: ASD03900060
#	Creating user name:	WinNT
#	Creation time:	15. 06. 2019 20:47

#	Modifying user name:	WinNT
#	Modification time:	15. 06. 2019 20:47

#	Program:	/corina/corina34_cracker 3.40 0067  02.08.2006

@<TRIPOS>MOLECULE
ASD03900060
  51   51    0    0    0
SMALL
NO_CHARGES


@<TRIPOS>ATOM
   1 C1             2.5573     1.3361    -0.3072 C.ar    
   2 C2             2.5205    -0.0267    -0.2694 C.ar    
   3 C3             1.2993    -0.6883    -0.0620 C.ar    
   4 C4             0.1213     0.0576     0.1056 C.ar    
   5 C5             0.1682     1.4201     0.0662 C.ar    
   6 C6             1.3841     2.0730    -0.1402 C.ar    
   7 C7             1.2542    -2.1520    -0.0210 C.cat   
   8 C8             2.1910    -2.9366    -0.8292 C.ar    
   9 C9             0.2723    -2.8312     0.8281 C.ar    
  10 C10           -0.2269    -4.0907     0.4587 C.ar    
  11 C11           -1.1405    -4.7192     1.2526 C.ar    
  12 C12           -1.5795    -4.1126     2.4301 C.ar    
  13 C13           -1.0867    -2.8608     2.8012 C.ar    
  14 C14           -0.1682    -2.2273     2.0169 C.ar    
  15 C15            2.5991    -4.2090    -0.3975 C.ar    
  16 C16            3.4710    -4.9359    -1.1535 C.ar    
  17 C17            3.9578    -4.4169    -2.3539 C.ar    
  18 C18            3.5555    -3.1528    -2.7868 C.ar    
  19 C19            2.6791    -2.4211    -2.0408 C.ar    
  20 O20            1.4257     3.4218    -0.1780 O.3     
  21 C21            2.7028     4.0258    -0.3929 C.3     
  22 O22           -2.4843    -4.7384     3.2126 O.3     
  23 C23           -2.8906    -4.0614     4.4036 C.3     
  24 O24            4.8210    -5.1400    -3.0987 O.3     
  25 C25            5.2801    -4.5492    -4.3162 C.3     
  26 H26            3.4968     1.8459    -0.4622 H       
  27 H27            3.4289    -0.5962    -0.3991 H       
  28 H28           -0.8202    -0.4468     0.2650 H       
  29 H29           -0.7372     1.9946     0.1950 H       
  30 H30            0.1118    -4.5607    -0.4528 H       
  31 H31           -1.5250    -5.6879     0.9694 H       
  32 H32           -1.4300    -2.3949     3.7130 H       
  33 H33            0.2129    -1.2587     2.3050 H       
  34 H34            2.2235    -4.6112     0.5318 H       
  35 H35            3.7856    -5.9146    -0.8224 H       
  36 H36            3.9354    -2.7550    -3.7162 H       
  37 H37            2.3680    -1.4429    -2.3768 H       
  38 H38            3.3821     3.7342     0.4082 H       
  39 H39            3.1055     3.6935    -1.3497 H       
  40 H40            2.5950     5.1104    -0.4010 H       
  41 H41           -2.0217    -3.8911     5.0392 H       
  42 H42           -3.3421    -3.1045     4.1415 H       
  43 H43           -3.6181    -4.6720     4.9385 H       
  44 H44            4.4286    -4.3491    -4.9665 H       
  45 H45            5.7957    -3.6148    -4.0948 H       
  46 H46            5.9661    -5.2332    -4.8158 H       
  47 B47           12.1617    11.4803    10.0468 Du      
  48 F48           12.1803    10.1104    10.0392 F       
  49 F49           13.3387    12.1814    10.0393 F       
  50 F50           10.9661    12.1491    10.0561 F       
  51 F51           18.3387    17.1814    15.0561 F       
@<TRIPOS>BOND
   1    1    2 ar
   2    1    6 ar
   3    1   26 1
   4    2    3 ar
   5    2   27 1
   6    3    4 ar
   7    3    7 1
   8    4    5 ar
   9    4   28 1
  10    5    6 ar
  11    5   29 1
  12    6   20 1
  13    7    8 1
  14    7    9 1
  15    8   15 ar
  16    8   19 ar
  17    9   10 ar
  18    9   14 ar
  19   10   11 ar
  20   10   30 1
  21   11   12 ar
  22   11   31 1
  23   12   22 1
  24   12   13 ar
  25   13   14 ar
  26   13   32 1
  27   14   33 1
  28   15   16 ar
  29   15   34 1
  30   16   17 ar
  31   16   35 1
  32   17   24 1
  33   17   18 ar
  34   18   19 ar
  35   18   36 1
  36   19   37 1
  37   20   21 1
  38   21   38 1
  39   21   39 1
  40   21   40 1
  41   22   23 1
  42   23   41 1
  43   23   42 1
  44   23   43 1
  45   24   25 1
  46   25   44 1
  47   25   45 1
  48   25   46 1
  49   47   48 1
  50   47   49 1
  51   47   50 1

#	End of record

