#	Name: ASD00069148
#	Creating user name:	WinNT
#	Creation time:	15. 06. 2019 18:29

#	Modifying user name:	WinNT
#	Modification time:	15. 06. 2019 18:29

#	Program:	/corina/corina34_cracker 3.40 0067  02.08.2006

@<TRIPOS>MOLECULE
ASD00069148
  53   56    0    0    0
SMALL
NO_CHARGES


@<TRIPOS>ATOM
   1 C1            -0.0971     1.1980    -0.5381 C.2     
   2 N2             0.0007    -0.0058    -0.0196 N.2     
   3 C3             1.2453    -0.4623    -0.2085 C.2     
   4 C4             1.9523     0.5004    -0.8739 C.2     
   5 N5             1.1117     1.5383    -1.0796 N.pl3   
   6 C6            -1.3088     2.0380    -0.5413 C.2     
   7 O7            -1.2828     3.1409    -1.0531 O.2     
   8 N8            -2.4452     1.5836     0.0232 N.am    
   9 C9             1.7655    -1.7809     0.2275 C.ar    
  10 C10            0.9231    -2.6678     0.9010 C.ar    
  11 C11            1.4164    -3.8962     1.3040 C.ar    
  12 C12            2.7387    -4.2054     1.0230 C.ar    
  13 C13            3.5273    -3.2754     0.3471 C.ar    
  14 N14            3.0224    -2.1072    -0.0305 N.ar    
  15 C15            4.8940    -3.5854     0.0529 C.1     
  16 N16            5.9783    -3.8313    -0.1805 N.1     
  17 C17           -3.5606     2.4242     0.1261 C.ar    
  18 C18           -4.8464     1.8955     0.0207 C.ar    
  19 C19           -5.9479     2.7345     0.1242 C.ar    
  20 C20           -5.7665     4.0911     0.3314 C.ar    
  21 C21           -4.4907     4.6139     0.4352 C.ar    
  22 C22           -3.3891     3.7843     0.3390 C.ar    
  23 F23           -7.1959     2.2272     0.0224 F       
  24 N24           -5.0264     0.5223    -0.1893 N.3     
  25 C25           -5.7973    -0.0809     0.9053 C.3     
  26 C26           -5.8496    -1.5989     0.7180 C.3     
  27 C27           -6.5033    -1.9198    -0.6289 C.3     
  28 C28           -5.7090    -1.2401    -1.7477 C.3     
  29 C29           -5.6608     0.2675    -1.4889 C.3     
  30 C30           -6.5035    -3.4339    -0.8493 C.3     
  31 N31           -7.2360    -3.7491    -2.0829 N.3     
  32 H32            2.9871     0.4423    -1.1778 H       
  33 H33            1.3261     2.3711    -1.5283 H       
  34 H34           -2.4906     0.6744     0.3581 H       
  35 H35           -0.1024    -2.3977     1.1054 H       
  36 H36            0.7849    -4.5993     1.8267 H       
  37 H37            3.1532    -5.1560     1.3248 H       
  38 H38           -6.6239     4.7430     0.4118 H       
  39 H39           -4.3544     5.6730     0.5965 H       
  40 H40           -2.3943     4.1959     0.4254 H       
  41 H41           -5.3194     0.1514     1.8570 H       
  42 H42           -6.8106     0.3208     0.9002 H       
  43 H43           -4.8374    -2.0029     0.7368 H       
  44 H44           -6.4350    -2.0448     1.5221 H       
  45 H45           -7.5286    -1.5500    -0.6335 H       
  46 H46           -4.6947    -1.6385    -1.7677 H       
  47 H47           -6.1941    -1.4296    -2.7052 H       
  48 H48           -6.6747     0.6676    -1.4828 H       
  49 H49           -5.0839     0.7528    -2.2761 H       
  50 H50           -5.4764    -3.7886    -0.9358 H       
  51 H51           -6.9871    -3.9240    -0.0042 H       
  52 H52           -6.8459    -3.2549    -2.8714 H       
  53 H53           -7.2504    -4.7439    -2.2508 H       
@<TRIPOS>BOND
   1    1    2 2
   2    1    5 1
   3    1    6 1
   4    2    3 1
   5    3    4 2
   6    3    9 1
   7    4    5 1
   8    4   32 1
   9    5   33 1
  10    6    7 2
  11    6    8 am
  12    8   17 1
  13    8   34 1
  14    9   10 ar
  15    9   14 ar
  16   10   11 ar
  17   10   35 1
  18   11   12 ar
  19   11   36 1
  20   12   13 ar
  21   12   37 1
  22   13   14 ar
  23   13   15 1
  24   15   16 3
  25   17   18 ar
  26   17   22 ar
  27   18   19 ar
  28   18   24 1
  29   19   20 ar
  30   19   23 1
  31   20   21 ar
  32   20   38 1
  33   21   22 ar
  34   21   39 1
  35   22   40 1
  36   24   25 1
  37   24   29 1
  38   25   26 1
  39   25   41 1
  40   25   42 1
  41   26   27 1
  42   26   43 1
  43   26   44 1
  44   27   28 1
  45   27   30 1
  46   27   45 1
  47   28   29 1
  48   28   46 1
  49   28   47 1
  50   29   48 1
  51   29   49 1
  52   30   31 1
  53   30   50 1
  54   30   51 1
  55   31   52 1
  56   31   53 1

#	End of record

