#	Name: ASD01940144
#	Creating user name:	WinNT
#	Creation time:	15. 06. 2019 20:11

#	Modifying user name:	WinNT
#	Modification time:	15. 06. 2019 20:11

#	Program:	/corina/corina34_cracker 3.40 0067  02.08.2006

@<TRIPOS>MOLECULE
ASD01940144
  41   42    0    0    0
SMALL
NO_CHARGES


@<TRIPOS>ATOM
   1 C1             2.7284    -3.8071    -1.8446 C.1     
   2 F2             1.8799     1.5442     2.2258 F       
   3 C3             1.0431     2.1399     1.3483 C.ar    
   4 C4             1.3683     2.1849    -0.0010 C.ar    
   5 C5             0.5015     2.8003    -0.9027 C.ar    
   6 C6            -0.6812     3.3646    -0.4485 C.ar    
   7 C7            -0.9995     3.3171     0.8962 C.ar    
   8 C8            -0.1430     2.7015     1.7930 C.ar    
   9 N9             2.5650     1.6135    -0.4549 N.pl3   
  10 N10            0.8247     2.8490    -2.2652 N.am    
  11 C11            2.6057     0.2627    -0.8010 C.ar    
  12 C12            1.4438    -0.5002    -0.7573 C.ar    
  13 C13            1.4810    -1.8347    -1.0991 C.ar    
  14 C14            2.6865    -2.4205    -1.4894 C.ar    
  15 C15            3.8516    -1.6519    -1.5323 C.ar    
  16 C16            3.8074    -0.3171    -1.1946 C.ar    
  17 C17            5.0642     0.5132    -1.2411 C.3     
  18 F18           -0.4617     2.6532     3.1050 F       
  19 S19            0.4124     4.1753    -3.1671 S.o2    
  20 O20            0.9778     3.9195    -4.4454 O.2     
  21 O21           -0.9937     4.2909    -2.9978 O.2     
  22 C22            2.7627    -4.9439    -2.1359 C.1     
  23 C23            1.2666     5.5561    -2.3580 C.3     
  24 O24            0.9811     6.7687    -3.0581 O.3     
  25 C25           -0.3326     7.2798    -2.8233 C.3     
  26 H26           -1.3540     3.8417    -1.1457 H       
  27 H27           -1.9210     3.7577     1.2473 H       
  28 H28            3.3648     2.1574    -0.5284 H       
  29 H29            1.2899     2.1059    -2.6802 H       
  30 H30            0.5116    -0.0465    -0.4550 H       
  31 H31            0.5784    -2.4268    -1.0646 H       
  32 H32            4.7857    -2.1026    -1.8335 H       
  33 H33            5.1715     0.9547    -2.2319 H       
  34 H34            5.0040     1.3055    -0.4949 H       
  35 H35            5.9259    -0.1200    -1.0301 H       
  36 H36            2.7933    -5.9606    -2.3964 H       
  37 H37            0.9229     5.6421    -1.3272 H       
  38 H38            2.3413     5.3748    -2.3687 H       
  39 H39           -1.0710     6.5437    -3.1408 H       
  40 H40           -0.4580     7.4850    -1.7602 H       
  41 H41           -0.4708     8.2007    -3.3899 H       
@<TRIPOS>BOND
   1    1   22 3
   2    1   14 1
   3    2    3 1
   4    3    4 ar
   5    3    8 ar
   6    4    5 ar
   7    4    9 1
   8    5    6 ar
   9    5   10 1
  10    6    7 ar
  11    6   26 1
  12    7    8 ar
  13    7   27 1
  14    8   18 1
  15    9   11 1
  16    9   28 1
  17   10   19 am
  18   10   29 1
  19   11   12 ar
  20   11   16 ar
  21   12   13 ar
  22   12   30 1
  23   13   14 ar
  24   13   31 1
  25   14   15 ar
  26   15   16 ar
  27   15   32 1
  28   16   17 1
  29   17   33 1
  30   17   34 1
  31   17   35 1
  32   19   20 2
  33   19   21 2
  34   19   23 1
  35   22   36 1
  36   23   24 1
  37   23   37 1
  38   23   38 1
  39   24   25 1
  40   25   39 1
  41   25   40 1
  42   25   41 1

#	End of record

