#	Name: ASD00071060
#	Creating user name:	WinNT
#	Creation time:	15. 06. 2019 18:30

#	Modifying user name:	WinNT
#	Modification time:	15. 06. 2019 18:30

#	Program:	/corina/corina34_cracker 3.40 0067  02.08.2006

@<TRIPOS>MOLECULE
ASD00071060
  42   44    0    0    0
SMALL
NO_CHARGES


@<TRIPOS>ATOM
   1 N1             2.1336     0.3689    -0.7728 N.ar    
   2 C2             2.1200    -0.8549    -0.2863 C.ar    
   3 C3             0.9239    -1.5724    -0.1379 C.ar    
   4 C4            -0.2587    -1.0025    -0.5009 C.ar    
   5 C5            -0.2373     0.3083    -1.0207 C.ar    
   6 C6            -1.4188     0.9549    -1.4137 C.ar    
   7 C7            -1.3600     2.2219    -1.9112 C.ar    
   8 C8            -0.1415     2.8843    -2.0354 C.ar    
   9 C9             1.0239     2.2859    -1.6640 C.ar    
  10 C10            1.0032     0.9800    -1.1462 C.ar    
  11 N11            3.3163    -1.4483     0.0876 N.pl3   
  12 C12            0.9473    -2.9714     0.4217 C.3     
  13 C13            0.8747    -2.9121     1.9258 C.ar    
  14 C14           -0.3484    -2.7299     2.5552 C.ar    
  15 C15           -0.4119    -2.6757     3.9398 C.ar    
  16 C16            0.7422    -2.8032     4.6887 C.ar    
  17 C17            1.9596    -2.9842     4.0592 C.ar    
  18 C18            2.0248    -3.0447     2.6791 C.ar    
  19 O19           -1.4821    -2.6043     1.8164 O.3     
  20 C20           -2.9750    -1.1038     2.9825 C.3     
  21 C21           -2.7183    -2.5427     2.5305 C.3     
  22 C22           -3.8576    -3.0017     1.6183 C.3     
  23 H23           -1.1889    -1.5407    -0.3938 H       
  24 H24           -2.3696     0.4510    -1.3226 H       
  25 H25           -2.2701     2.7187    -2.2133 H       
  26 H26           -0.1204     3.8883    -2.4329 H       
  27 H27            1.9608     2.8131    -1.7674 H       
  28 H28            4.1534    -0.9758    -0.0420 H       
  29 H29            3.3160    -2.3359     0.4789 H       
  30 H30            0.0937    -3.5304     0.0385 H       
  31 H31            1.8705    -3.4673     0.1218 H       
  32 H32           -1.3627    -2.5336     4.4321 H       
  33 H33            0.6932    -2.7611     5.7668 H       
  34 H34            2.8606    -3.0830     4.6463 H       
  35 H35            2.9764    -3.1910     2.1898 H       
  36 H36           -3.9180    -1.0568     3.5272 H       
  37 H37           -2.1634    -0.7768     3.6324 H       
  38 H38           -3.0266    -0.4526     2.1100 H       
  39 H39           -2.6667    -3.1940     3.4031 H       
  40 H40           -3.6748    -4.0268     1.2962 H       
  41 H41           -4.8006    -2.9547     2.1629 H       
  42 H42           -3.9092    -2.3505     0.7457 H       
@<TRIPOS>BOND
   1    1    2 ar
   2    1   10 ar
   3    2    3 ar
   4    2   11 1
   5    3    4 ar
   6    3   12 1
   7    4    5 ar
   8    4   23 1
   9    5    6 ar
  10    5   10 ar
  11    6    7 ar
  12    6   24 1
  13    7    8 ar
  14    7   25 1
  15    8    9 ar
  16    8   26 1
  17    9   10 ar
  18    9   27 1
  19   11   28 1
  20   11   29 1
  21   12   13 1
  22   12   30 1
  23   12   31 1
  24   13   14 ar
  25   13   18 ar
  26   14   15 ar
  27   14   19 1
  28   15   16 ar
  29   15   32 1
  30   16   17 ar
  31   16   33 1
  32   17   18 ar
  33   17   34 1
  34   18   35 1
  35   19   21 1
  36   20   21 1
  37   20   36 1
  38   20   37 1
  39   20   38 1
  40   21   22 1
  41   21   39 1
  42   22   40 1
  43   22   41 1
  44   22   42 1

#	End of record

