#	Name: ASD00122075
#	Creating user name:	WinNT
#	Creation time:	15. 06. 2019 18:31

#	Modifying user name:	WinNT
#	Modification time:	15. 06. 2019 18:31

#	Program:	/corina/corina34_cracker 3.40 0067  02.08.2006

@<TRIPOS>MOLECULE
ASD00122075
  21   22    0    0    0
SMALL
NO_CHARGES


@<TRIPOS>ATOM
   1 C1            -0.0158     1.3162     0.0093 C.ar    
   2 N2             0.0021    -0.0041     0.0020 N.ar    
   3 C3             1.1482    -0.6768    -0.0126 C.ar    
   4 C4             2.3509     0.0496    -0.0202 C.ar    
   5 C5             2.2783     1.4530    -0.0120 C.ar    
   6 N6             1.0852     2.0379     0.0026 N.ar    
   7 N7             1.1569    -2.0607    -0.0196 N.3     
   8 N8             3.6643    -0.2820    -0.0350 N.2     
   9 C9             4.3848     0.8017    -0.0364 C.2     
  10 N10            3.5758     1.8988    -0.0225 N.pl3   
  11 C11           -0.2112    -2.5958    -0.0090 C.3     
  12 C12            1.9150    -2.5766    -1.1673 C.3     
  13 H13           -0.9695     1.8231     0.0165 H       
  14 H14            5.4644     0.8280    -0.0469 H       
  15 H15            3.8645     2.8248    -0.0210 H       
  16 H16           -0.7454    -2.2451    -0.8920 H       
  17 H17           -0.1753    -3.6852    -0.0148 H       
  18 H18           -0.7280    -2.2541     0.8878 H       
  19 H19            2.9439    -2.2209    -1.1126 H       
  20 H20            1.9058    -3.6664    -1.1486 H       
  21 H21            1.4578    -2.2252    -2.0923 H       
@<TRIPOS>BOND
   1    1    2 ar
   2    1    6 ar
   3    1   13 1
   4    2    3 ar
   5    3    4 ar
   6    3    7 1
   7    4    5 ar
   8    4    8 1
   9    5    6 ar
  10    5   10 1
  11    7   11 1
  12    7   12 1
  13    8    9 2
  14    9   10 1
  15    9   14 1
  16   10   15 1
  17   11   16 1
  18   11   17 1
  19   11   18 1
  20   12   19 1
  21   12   20 1
  22   12   21 1

#	End of record

