#	Name: ASD05060119
#	Creating user name:	WinNT
#	Creation time:	15. 06. 2019 20:56

#	Modifying user name:	WinNT
#	Modification time:	15. 06. 2019 20:56

#	Program:	/corina/corina34_cracker 3.40 0067  02.08.2006

@<TRIPOS>MOLECULE
ASD05060119
  60   62    0    0    0
SMALL
NO_CHARGES


@<TRIPOS>ATOM
   1 C1             0.1158     0.9040    -0.0951 C.ar    
   2 N2             0.0760     0.0116    -1.0670 N.ar    
   3 C3             1.1277    -0.2533    -1.8194 C.ar    
   4 C4             2.3249     0.3992    -1.6182 C.ar    
   5 C5             2.4139     1.3553    -0.5970 C.ar    
   6 C6             1.2716     1.6039     0.1767 C.ar    
   7 C7             6.0112     2.9029     0.0763 C.2     
   8 C8             5.0954     3.8686     0.0379 C.2     
   9 C9             3.7924     3.4389    -0.1932 C.2     
  10 C10            3.6734     2.0789    -0.3435 C.2     
  11 S11            5.2605     1.3368    -0.1924 S.3     
  12 C12            7.4836     3.1224     0.3106 C.3     
  13 C13            5.4447     5.3218     0.2312 C.3     
  14 C14            2.6429     4.3605    -0.2698 C.2     
  15 C15            2.0731     4.7329     0.8531 C.2     
  16 C16            0.8926     5.6571     0.9246 C.3     
  17 C17            0.7338     6.4118    -0.3969 C.3     
  18 C18            0.7791     5.3966    -1.5456 C.3     
  19 C19            2.1967     4.8224    -1.6264 C.3     
  20 C20           -0.6088     7.1454    -0.4118 C.3     
  21 C21            1.8756     7.4179    -0.5548 C.3     
  22 O22            6.3358     5.4540     1.3404 O.3     
  23 C23            6.2170     6.6963     2.0366 C.3     
  24 C24            6.1109     5.8481    -1.0139 C.2     
  25 C25            4.7944     6.8421     2.5804 C.3     
  26 C26            7.2126     6.7274     3.1979 C.3     
  27 C27            6.5168     7.8494     1.0768 C.3     
  28 O28            7.2640     6.2071    -0.9763 O.2     
  29 O29            5.4234     5.9182    -2.1646 O.3     
  30 H30           -0.7708     1.0914     0.4924 H       
  31 H31            1.0490    -0.9920    -2.6034 H       
  32 H32            3.1813     0.1770    -2.2375 H       
  33 H33            1.2968     2.3328     0.9733 H       
  34 H34            7.6922     3.0768     1.3794 H       
  35 H35            8.0527     2.3483    -0.2041 H       
  36 H36            7.7708     4.1009    -0.0742 H       
  37 H37            4.5358     5.8912     0.4254 H       
  38 H38            2.4773     4.3517     1.7793 H       
  39 H39           -0.0092     5.0769     1.1200 H       
  40 H40            1.0421     6.3723     1.7334 H       
  41 H41            0.0658     4.5950    -1.3542 H       
  42 H42            0.5324     5.8939    -2.4837 H       
  43 H43            2.8771     5.5902    -1.9949 H       
  44 H44            2.2050     3.9756    -2.3126 H       
  45 H45           -0.6451     7.8535     0.4160 H       
  46 H46           -0.7193     7.6820    -1.3541 H       
  47 H47           -1.4186     6.4231    -0.3079 H       
  48 H48            2.8305     6.9041    -0.4442 H       
  49 H49            1.8219     7.8764    -1.5422 H       
  50 H50            1.7878     8.1900     0.2096 H       
  51 H51            4.5808     6.0205     3.2642 H       
  52 H52            4.7037     7.7897     3.1114 H       
  53 H53            4.0851     6.8199     1.7531 H       
  54 H54            8.2261     6.6235     2.8104 H       
  55 H55            7.1220     7.6750     3.7289 H       
  56 H56            6.9991     5.9058     3.8817 H       
  57 H57            5.8074     7.8273     0.2494 H       
  58 H58            6.4261     8.7970     1.6078 H       
  59 H59            7.5303     7.7455     0.6893 H       
  60 H60            5.8931     6.2626    -2.9364 H       
@<TRIPOS>BOND
   1    1    2 ar
   2    1    6 ar
   3    1   30 1
   4    2    3 ar
   5    3    4 ar
   6    3   31 1
   7    4    5 ar
   8    4   32 1
   9    5    6 ar
  10    5   10 1
  11    6   33 1
  12    7    8 2
  13    7   12 1
  14    7   11 1
  15    8    9 1
  16    8   13 1
  17    9   10 2
  18    9   14 1
  19   10   11 1
  20   12   34 1
  21   12   35 1
  22   12   36 1
  23   13   22 1
  24   13   24 1
  25   13   37 1
  26   14   15 2
  27   14   19 1
  28   15   16 1
  29   15   38 1
  30   16   17 1
  31   16   39 1
  32   16   40 1
  33   17   18 1
  34   17   20 1
  35   17   21 1
  36   18   19 1
  37   18   41 1
  38   18   42 1
  39   19   43 1
  40   19   44 1
  41   20   45 1
  42   20   46 1
  43   20   47 1
  44   21   48 1
  45   21   49 1
  46   21   50 1
  47   22   23 1
  48   23   25 1
  49   23   26 1
  50   23   27 1
  51   24   28 2
  52   24   29 1
  53   25   51 1
  54   25   52 1
  55   25   53 1
  56   26   54 1
  57   26   55 1
  58   26   56 1
  59   27   57 1
  60   27   58 1
  61   27   59 1
  62   29   60 1

#	End of record

