#	Name: ASD03082011
#	Creating user name:	WinNT
#	Creation time:	15. 06. 2019 20:27

#	Modifying user name:	WinNT
#	Modification time:	15. 06. 2019 20:27

#	Program:	/corina/corina34_cracker 3.40 0067  02.08.2006

@<TRIPOS>MOLECULE
ASD03082011
  46   48    0    0    0
SMALL
NO_CHARGES


@<TRIPOS>ATOM
   1 C1             0.2524     1.1448    -0.3406 C.3     
   2 N2             0.1024    -0.3100    -0.2026 N.3     
   3 C3             0.5886    -1.0116    -1.3981 C.3     
   4 C4             2.0898    -0.7525    -1.5633 C.3     
   5 N5             2.3163     0.7008    -1.5600 N.am    
   6 C6             1.7399     1.4923    -0.4624 C.3     
   7 S7             3.1972     1.4265    -2.7598 S.o2    
   8 C8            -1.2916    -0.6702     0.0888 C.3     
   9 C9            -2.1609    -0.3055    -1.0869 C.2     
  10 N10           -3.4632    -0.6527    -1.0954 N.am    
  11 O11           -1.6887     0.3003    -2.0255 O.2     
  12 C12           -4.2952    -0.2224    -2.1349 C.ar    
  13 C13           -5.3392    -1.0283    -2.5696 C.ar    
  14 C14           -6.1589    -0.6005    -3.5955 C.ar    
  15 C15           -5.9406     0.6287    -4.1902 C.ar    
  16 C16           -4.9018     1.4335    -3.7597 C.ar    
  17 C17           -4.0821     1.0140    -2.7303 C.ar    
  18 O18            4.0388     0.4196    -3.3047 O.2     
  19 C19            2.0688     1.8762    -4.0362 C.ar    
  20 O20            3.6920     2.6421    -2.2150 O.2     
  21 C21            1.4603     3.1173    -4.0144 C.ar    
  22 C22            0.5754     3.4713    -5.0152 C.ar    
  23 C23            0.2984     2.5823    -6.0399 C.ar    
  24 C24            0.9085     1.3396    -6.0607 C.ar    
  25 C25            1.7970     0.9898    -5.0616 C.ar    
  26 F26           -0.5668     2.9271    -7.0186 F       
  27 H27           -0.2741     1.4817    -1.2336 H       
  28 H28           -0.1657     1.6384     0.5367 H       
  29 H29            0.4142    -2.0819    -1.2878 H       
  30 H30            0.0573    -0.6447    -2.2764 H       
  31 H31            2.6335    -1.2097    -0.7365 H       
  32 H32            2.4324    -1.1743    -2.5082 H       
  33 H33            1.8512     2.5547    -0.6795 H       
  34 H34            2.2499     1.2509     0.4702 H       
  35 H35           -1.3591    -1.7426     0.2719 H       
  36 H36           -1.6297    -0.1288     0.9724 H       
  37 H37           -3.8237    -1.2008    -0.3809 H       
  38 H38           -5.5098    -1.9888    -2.1060 H       
  39 H39           -6.9711    -1.2269    -3.9340 H       
  40 H40           -6.5825     0.9606    -4.9927 H       
  41 H41           -4.7339     2.3930    -4.2261 H       
  42 H42           -3.2710     1.6431    -2.3946 H       
  43 H43            1.6762     3.8104    -3.2148 H       
  44 H44            0.0999     4.4408    -4.9978 H       
  45 H45            0.6931     0.6453    -6.8595 H       
  46 H46            2.2730     0.0205    -5.0776 H       
@<TRIPOS>BOND
   1    1    2 1
   2    1    6 1
   3    1   27 1
   4    1   28 1
   5    2    3 1
   6    2    8 1
   7    3    4 1
   8    3   29 1
   9    3   30 1
  10    4    5 1
  11    4   31 1
  12    4   32 1
  13    5    6 1
  14    5    7 am
  15    6   33 1
  16    6   34 1
  17    7   18 2
  18    7   19 1
  19    7   20 2
  20    8    9 1
  21    8   35 1
  22    8   36 1
  23    9   10 am
  24    9   11 2
  25   10   12 1
  26   10   37 1
  27   12   13 ar
  28   12   17 ar
  29   13   14 ar
  30   13   38 1
  31   14   15 ar
  32   14   39 1
  33   15   16 ar
  34   15   40 1
  35   16   17 ar
  36   16   41 1
  37   17   42 1
  38   19   21 ar
  39   19   25 ar
  40   21   22 ar
  41   21   43 1
  42   22   23 ar
  43   22   44 1
  44   23   24 ar
  45   23   26 1
  46   24   25 ar
  47   24   45 1
  48   25   46 1

#	End of record

