#	Name: ASD02500009
#	Creating user name:	WinNT
#	Creation time:	15. 06. 2019 20:22

#	Modifying user name:	WinNT
#	Modification time:	15. 06. 2019 20:22

#	Program:	/corina/corina34_cracker 3.40 0067  02.08.2006

@<TRIPOS>MOLECULE
ASD02500009
  34   35    0    0    0
SMALL
NO_CHARGES


@<TRIPOS>ATOM
   1 C1            -0.0166     1.3710     0.0096 C.ar    
   2 C2             0.0021    -0.0041     0.0020 C.ar    
   3 C3             1.2120    -0.6885    -0.0127 C.ar    
   4 C4             2.4228     0.0238    -0.0200 C.ar    
   5 C5             2.4059     1.4162    -0.0128 C.ar    
   6 C6             1.1856     2.0936     0.0020 C.ar    
   7 C7             1.1603     3.5625     0.0091 C.2     
   8 O8             0.0997     4.1507     0.0220 O.2     
   9 H9             2.0862     4.1186     0.0030 H       
  10 C10            3.7071    -0.7005    -0.0346 C.2     
  11 O11            4.8671    -0.0149    -0.0416 O.3     
  12 O12            3.7194    -1.9154    -0.0405 O.2     
  13 O13            1.2235    -2.0427    -0.0197 O.3     
  14 C14           -0.0442    -2.7022    -0.0112 C.3     
  15 C15            0.1691    -4.2173    -0.0208 C.3     
  16 C16           -1.1678    -4.9128    -0.0118 C.ar    
  17 C17           -1.7921    -5.2258    -1.2048 C.ar    
  18 C18           -3.0184    -5.8638    -1.1966 C.ar    
  19 C19           -3.6202    -6.1892     0.0046 C.ar    
  20 C20           -2.9954    -5.8770     1.1976 C.ar    
  21 C21           -1.7671    -5.2429     1.1893 C.ar    
  22 H22           -0.9602     1.8964     0.0169 H       
  23 H23           -0.9271    -0.5545     0.0079 H       
  24 H24            3.3333     1.9697    -0.0183 H       
  25 H25            5.6833    -0.5333    -0.0512 H       
  26 H26           -0.5953    -2.4186     0.8855 H       
  27 H27           -0.6119    -2.4096    -0.8944 H       
  28 H28            0.7202    -4.5009    -0.9174 H       
  29 H29            0.7368    -4.5099     0.8625 H       
  30 H30           -1.3219    -4.9715    -2.1432 H       
  31 H31           -3.5065    -6.1076    -2.1286 H       
  32 H32           -4.5786    -6.6870     0.0111 H       
  33 H33           -3.4657    -6.1309     2.1361 H       
  34 H34           -1.2790    -4.9990     2.1214 H       
@<TRIPOS>BOND
   1    1    2 ar
   2    1    6 ar
   3    1   22 1
   4    2    3 ar
   5    2   23 1
   6    3    4 ar
   7    3   13 1
   8    4    5 ar
   9    4   10 1
  10    5    6 ar
  11    5   24 1
  12    6    7 1
  13    7    8 2
  14    7    9 1
  15   10   11 1
  16   10   12 2
  17   11   25 1
  18   13   14 1
  19   14   15 1
  20   14   26 1
  21   14   27 1
  22   15   16 1
  23   15   28 1
  24   15   29 1
  25   16   17 ar
  26   16   21 ar
  27   17   18 ar
  28   17   30 1
  29   18   19 ar
  30   18   31 1
  31   19   20 ar
  32   19   32 1
  33   20   21 ar
  34   20   33 1
  35   21   34 1

#	End of record

