#	Name: ASD08150480
#	Creating user name:	WinNT
#	Creation time:	15. 06. 2019 21:16

#	Modifying user name:	WinNT
#	Modification time:	15. 06. 2019 21:16

#	Program:	/corina/corina34_cracker 3.40 0067  02.08.2006

@<TRIPOS>MOLECULE
ASD08150480
  54   59    0    0    0
SMALL
NO_CHARGES


@<TRIPOS>ATOM
   1 N1            -0.0939     1.6040    -1.3111 N.am    
   2 C2             0.1781     0.7427    -2.3105 C.2     
   3 C3             1.2766    -0.1369    -2.2290 C.2     
   4 C4             2.0798    -0.1271    -1.1348 C.2     
   5 C5             1.7966     0.7778    -0.0814 C.ar    
   6 C6             2.5979     0.8292     1.0751 C.ar    
   7 N7             2.3345     1.6653     2.0452 N.ar    
   8 C8             1.2973     2.5150     1.9985 C.ar    
   9 C9             0.4374     2.5326     0.8727 C.ar    
  10 C10            0.6951     1.6402    -0.1943 C.ar    
  11 C11           -0.6410     3.4216     0.8340 C.ar    
  12 C12           -0.8575     4.2786     1.9011 C.ar    
  13 C13           -0.0020     4.2556     3.0116 C.ar    
  14 C14            1.0508     3.3964     3.0640 C.ar    
  15 O15           -0.5358     0.7234    -3.2988 O.2     
  16 C16           -1.9991     5.2247     1.8682 C.ar    
  17 C17           -1.1884     2.4723    -1.4187 C.ar    
  18 C18           -0.9993     3.8004    -1.7705 C.ar    
  19 N19           -2.0254     4.6231    -1.8740 N.ar    
  20 C20           -3.2647     4.2205    -1.6492 C.ar    
  21 C21           -3.5312     2.9044    -1.2927 C.ar    
  22 C22           -2.4819     2.0108    -1.1792 C.ar    
  23 C23           -1.9755     6.3752     2.6427 C.ar    
  24 C24           -3.1094     4.9653     1.0483 C.ar    
  25 N25           -4.1305     5.7822     0.9994 N.ar    
  26 C26           -4.1681     6.9040     1.7268 C.ar    
  27 C27           -3.0828     7.2387     2.5750 C.ar    
  28 C28           -5.2742     7.7690     1.6612 C.ar    
  29 C29           -5.2902     8.9047     2.4111 C.ar    
  30 C30           -4.2243     9.2294     3.2480 C.ar    
  31 C31           -3.1337     8.4194     3.3352 C.ar    
  32 O32           -4.2885     5.1036    -1.7676 O.3     
  33 C33           -5.1986     7.3203    -2.0816 C.3     
  34 C34           -3.9548     6.4336    -2.1698 C.3     
  35 H35            1.4796    -0.8211    -3.0396 H       
  36 H36            2.9224    -0.7994    -1.0677 H       
  37 H37            3.4455     0.1656     1.1627 H       
  38 H38           -1.3002     3.4405    -0.0213 H       
  39 H39           -0.1814     4.9293     3.8364 H       
  40 H40            1.6993     3.3917     3.9276 H       
  41 H41           -0.0009     4.1654    -1.9614 H       
  42 H42           -4.5457     2.5823    -1.1101 H       
  43 H43           -2.6595     0.9817    -0.9040 H       
  44 H44           -1.1322     6.6006     3.2786 H       
  45 H45           -3.1207     4.0705     0.4436 H       
  46 H46           -6.1086     7.5333     1.0174 H       
  47 H47           -6.1428     9.5654     2.3563 H       
  48 H48           -4.2624    10.1371     3.8320 H       
  49 H49           -2.3136     8.6811     3.9875 H       
  50 H50           -5.5116     7.4047    -1.0409 H       
  51 H51           -4.9670     8.3110    -2.4728 H       
  52 H52           -6.0032     6.8770    -2.6682 H       
  53 H53           -3.1799     6.8283    -1.5127 H       
  54 H54           -3.5892     6.4218    -3.1966 H       
@<TRIPOS>BOND
   1    1    2 am
   2    1   10 1
   3    1   17 1
   4    2    3 1
   5    2   15 2
   6    3    4 2
   7    3   35 1
   8    4    5 1
   9    4   36 1
  10    5    6 ar
  11    5   10 ar
  12    6    7 ar
  13    6   37 1
  14    7    8 ar
  15    8    9 ar
  16    8   14 ar
  17    9   10 ar
  18    9   11 ar
  19   11   12 ar
  20   11   38 1
  21   12   13 ar
  22   12   16 1
  23   13   14 ar
  24   13   39 1
  25   14   40 1
  26   16   24 ar
  27   16   23 ar
  28   17   18 ar
  29   17   22 ar
  30   18   19 ar
  31   18   41 1
  32   19   20 ar
  33   20   21 ar
  34   20   32 1
  35   21   22 ar
  36   21   42 1
  37   22   43 1
  38   23   27 ar
  39   23   44 1
  40   24   25 ar
  41   24   45 1
  42   25   26 ar
  43   26   27 ar
  44   26   28 ar
  45   27   31 ar
  46   28   29 ar
  47   28   46 1
  48   29   30 ar
  49   29   47 1
  50   30   31 ar
  51   30   48 1
  52   31   49 1
  53   32   34 1
  54   33   34 1
  55   33   50 1
  56   33   51 1
  57   33   52 1
  58   34   53 1
  59   34   54 1

#	End of record

