#	Name: ASD01913879
#	Creating user name:	WinNT
#	Creation time:	15. 06. 2019 20:02

#	Modifying user name:	WinNT
#	Modification time:	15. 06. 2019 20:02

#	Program:	/corina/corina34_cracker 3.40 0067  02.08.2006

@<TRIPOS>MOLECULE
ASD01913879
  42   44    0    0    0
SMALL
NO_CHARGES


@<TRIPOS>ATOM
   1 C1            -0.0192     1.4278    -0.0132 C.ar    
   2 C2             0.0008    -0.0040    -0.0142 C.1     
   3 C3             0.0171    -1.1779    -0.0150 C.1     
   4 C4             0.0371    -2.6098    -0.0160 C.ar    
   5 C5            -1.1523    -3.3387     0.1333 C.ar    
   6 C6             0.1560    -5.3344    -0.0290 C.ar    
   7 N7             1.2611    -4.6185    -0.1732 N.ar    
   8 C8             1.2402    -3.3019    -0.1715 C.ar    
   9 C9            -1.0817    -4.7173     0.1254 C.ar    
  10 C10            1.1698     2.1467    -0.1624 C.ar    
  11 C11            1.1428     3.5256    -0.1604 C.ar    
  12 C12           -1.2285     2.1130     0.1313 C.ar    
  13 C13           -0.0578     4.1973    -0.0106 C.ar    
  14 C14           -1.2400     3.4922     0.1314 C.ar    
  15 N15            0.2331    -6.7251    -0.0380 N.am    
  16 C16            0.1549    -7.3614    -1.2116 C.2     
  17 O17            0.1735    -8.6988    -1.3225 O.3     
  18 C18            0.6534    -9.4539    -0.1760 C.3     
  19 C19           -0.0190    -8.8889     1.0827 C.3     
  20 C20            0.4016    -7.4224     1.2343 C.3     
  21 O21            0.0623    -6.6976    -2.2251 O.2     
  22 C22            0.2865   -10.9302    -0.3393 C.3     
  23 O23            0.9824   -11.4724    -1.4635 O.3     
  24 C24            0.7085   -12.8539    -1.7055 C.3     
  25 H25           -2.0996    -2.8337     0.2518 H       
  26 H26            2.1619    -2.7521    -0.2918 H       
  27 H27           -1.9772    -5.3104     0.2382 H       
  28 H28            2.1076     1.6238    -0.2787 H       
  29 H29            2.0609     4.0825    -0.2757 H       
  30 H30           -2.1519     1.5640     0.2423 H       
  31 H31           -0.0727     5.2772    -0.0091 H       
  32 H32           -2.1732     4.0231     0.2475 H       
  33 H33            1.7353    -9.3498    -0.0934 H       
  34 H34           -1.1023    -8.9551     0.9814 H       
  35 H35            0.3038    -9.4545     1.9568 H       
  36 H36            1.4456    -7.3755     1.5442 H       
  37 H37           -0.2209    -6.9435     1.9900 H       
  38 H38            0.5687   -11.4765     0.5607 H       
  39 H39           -0.7880   -11.0221    -0.4982 H       
  40 H40            1.2744   -13.1897    -2.5745 H       
  41 H41            0.9995   -13.4401    -0.8338 H       
  42 H42           -0.3571   -12.9857    -1.8927 H       
@<TRIPOS>BOND
   1    1    2 1
   2    1   10 ar
   3    1   12 ar
   4    2    3 3
   5    3    4 1
   6    4    5 ar
   7    4    8 ar
   8    5    9 ar
   9    5   25 1
  10    6    7 ar
  11    6   15 1
  12    6    9 ar
  13    7    8 ar
  14    8   26 1
  15    9   27 1
  16   10   11 ar
  17   10   28 1
  18   11   13 ar
  19   11   29 1
  20   12   14 ar
  21   12   30 1
  22   13   14 ar
  23   13   31 1
  24   14   32 1
  25   15   16 am
  26   15   20 1
  27   16   17 1
  28   16   21 2
  29   17   18 1
  30   18   19 1
  31   18   22 1
  32   18   33 1
  33   19   20 1
  34   19   34 1
  35   19   35 1
  36   20   36 1
  37   20   37 1
  38   22   23 1
  39   22   38 1
  40   22   39 1
  41   23   24 1
  42   24   40 1
  43   24   41 1
  44   24   42 1

#	End of record

