#	Name: ASD00310155
#	Creating user name:	WinNT
#	Creation time:	15. 06. 2019 18:33

#	Modifying user name:	WinNT
#	Modification time:	15. 06. 2019 18:33

#	Program:	/corina/corina34_cracker 3.40 0067  02.08.2006

@<TRIPOS>MOLECULE
ASD00310155
  38   40    0    0    0
SMALL
NO_CHARGES


@<TRIPOS>ATOM
   1 N1             0.1504     0.5553     0.3175 N.pl3   
   2 N2             0.2601    -0.7208     0.2330 N.2     
   3 C3             1.5163    -1.1020     0.1381 C.2     
   4 C4             2.3239     0.1257     0.1676 C.ar    
   5 C5             3.6813     0.4193     0.1084 C.ar    
   6 C6             4.0936     1.7437     0.1662 C.ar    
   7 C7             3.1471     2.7697     0.2835 C.ar    
   8 C8             1.8130     2.4852     0.3419 C.ar    
   9 C9             1.3782     1.1639     0.2851 C.ar    
  10 C10            2.0136    -2.4832     0.0258 C.2     
  11 O11            3.2078    -2.6945    -0.0547 O.2     
  12 O12            1.1445    -3.5134     0.0122 O.3     
  13 C13            5.5390     2.0729     0.1042 C.ar    
  14 C14            5.9986     3.0385    -0.7892 C.ar    
  15 C15            7.3441     3.3411    -0.8423 C.ar    
  16 C16            8.2358     2.6879    -0.0108 C.ar    
  17 C17            7.7852     1.7285     0.8780 C.ar    
  18 C18            6.4411     1.4217     0.9433 C.ar    
  19 C19           10.1304     3.6942     1.2330 C.3     
  20 C20            9.7039     3.0223    -0.0737 C.3     
  21 C21           10.5113     1.7382    -0.2742 C.3     
  22 O22            9.9436     3.9111    -1.1667 O.3     
  23 F23           10.0055     2.7838     2.2879 F       
  24 F24           11.4625     4.1094     1.1307 F       
  25 F25            9.3134     4.8036     1.4752 F       
  26 Cl26           3.6764     4.4214     0.3560 Cl      
  27 H27           -0.6932     1.0284     0.3908 H       
  28 H28            4.4078    -0.3748     0.0187 H       
  29 H29            1.0942     3.2861     0.4327 H       
  30 H30            1.5182    -4.4021    -0.0631 H       
  31 H31            5.3032     3.5489    -1.4391 H       
  32 H32            7.7014     4.0891    -1.5346 H       
  33 H33            8.4858     1.2215     1.5249 H       
  34 H34            6.0897     0.6755     1.6404 H       
  35 H35           10.2075     1.2595    -1.2051 H       
  36 H36           11.5732     1.9801    -0.3197 H       
  37 H37           10.3285     1.0602     0.5595 H       
  38 H38            9.4627     4.7479    -1.1059 H       
@<TRIPOS>BOND
   1    1    2 1
   2    1    9 1
   3    1   27 1
   4    2    3 2
   5    3    4 1
   6    3   10 1
   7    4    5 ar
   8    4    9 ar
   9    5    6 ar
  10    5   28 1
  11    6    7 ar
  12    6   13 1
  13    7    8 ar
  14    7   26 1
  15    8    9 ar
  16    8   29 1
  17   10   11 2
  18   10   12 1
  19   12   30 1
  20   13   14 ar
  21   13   18 ar
  22   14   15 ar
  23   14   31 1
  24   15   16 ar
  25   15   32 1
  26   16   17 ar
  27   16   20 1
  28   17   18 ar
  29   17   33 1
  30   18   34 1
  31   19   20 1
  32   19   23 1
  33   19   24 1
  34   19   25 1
  35   20   21 1
  36   20   22 1
  37   21   35 1
  38   21   36 1
  39   21   37 1
  40   22   38 1

#	End of record

