#	Name: ASD01890294
#	Creating user name:	WinNT
#	Creation time:	15. 06. 2019 19:50

#	Modifying user name:	WinNT
#	Modification time:	15. 06. 2019 19:50

#	Program:	/corina/corina34_cracker 3.40 0067  02.08.2006

@<TRIPOS>MOLECULE
ASD01890294
  36   38    0    0    0
SMALL
NO_CHARGES


@<TRIPOS>ATOM
   1 C1            -0.0184     1.5028     0.0103 C.2     
   2 C2             0.0021    -0.0041     0.0020 C.3     
   3 C3             1.4513    -0.4944    -0.0145 C.3     
   4 O4             1.0234     2.1233     0.0037 O.2     
   5 C5             1.4717    -2.0012    -0.0227 C.ar    
   6 C6             1.5948    -2.6902     1.1448 C.ar    
   7 C7             1.6155    -4.0833     1.1569 C.ar    
   8 C8             1.5130    -4.7959     0.0015 C.ar    
   9 C9             1.3842    -4.1196    -1.2232 C.ar    
  10 C10            1.2763    -4.8207    -2.4365 C.ar    
  11 C11            1.1532    -4.1318    -3.6036 C.ar    
  12 C12            1.1327    -2.7382    -3.6158 C.ar    
  13 C13            1.2353    -2.0258    -2.4608 C.ar    
  14 C14            1.3580    -2.7024    -1.2350 C.ar    
  15 C15           -1.3020     2.2208     0.0203 C.ar    
  16 C16           -1.3249     3.6196     0.0280 C.ar    
  17 C17           -2.5313     4.2857     0.0369 C.ar    
  18 C18           -3.7198     3.5733     0.0386 C.ar    
  19 C19           -3.7049     2.1877     0.0315 C.ar    
  20 C20           -2.5060     1.5083     0.0163 C.ar    
  21 Cl21          -5.2349     4.4208     0.0504 Cl      
  22 H22           -0.4983    -0.3791     0.8948 H       
  23 H23           -0.5153    -0.3696    -0.8850 H       
  24 H24            1.9516    -0.1193    -0.9073 H       
  25 H25            1.9686    -0.1289     0.8726 H       
  26 H26            1.6778    -2.1489     2.0757 H       
  27 H27            1.7148    -4.6057     2.0969 H       
  28 H28            1.5310    -5.8755     0.0262 H       
  29 H29            1.2914    -5.9006    -2.4426 H       
  30 H30            1.0705    -4.6731    -4.5346 H       
  31 H31            1.0343    -2.2159    -4.5559 H       
  32 H32            1.2186    -0.9462    -2.4856 H       
  33 H33           -0.3993     4.1761     0.0274 H       
  34 H34           -2.5505     5.3655     0.0428 H       
  35 H35           -4.6351     1.6389     0.0332 H       
  36 H36           -2.4958     0.4284     0.0062 H       
@<TRIPOS>BOND
   1    1    2 1
   2    1    4 2
   3    1   15 1
   4    2    3 1
   5    2   22 1
   6    2   23 1
   7    3    5 1
   8    3   24 1
   9    3   25 1
  10    5    6 ar
  11    5   14 ar
  12    6    7 ar
  13    6   26 1
  14    7    8 ar
  15    7   27 1
  16    8    9 ar
  17    8   28 1
  18    9   10 ar
  19    9   14 ar
  20   10   11 ar
  21   10   29 1
  22   11   12 ar
  23   11   30 1
  24   12   13 ar
  25   12   31 1
  26   13   14 ar
  27   13   32 1
  28   15   16 ar
  29   15   20 ar
  30   16   17 ar
  31   16   33 1
  32   17   18 ar
  33   17   34 1
  34   18   19 ar
  35   18   21 1
  36   19   20 ar
  37   19   35 1
  38   20   36 1

#	End of record

