#	Name: ASD08150567
#	Creating user name:	WinNT
#	Creation time:	15. 06. 2019 21:16

#	Modifying user name:	WinNT
#	Modification time:	15. 06. 2019 21:16

#	Program:	/corina/corina34_cracker 3.40 0067  02.08.2006

@<TRIPOS>MOLECULE
ASD08150567
  49   54    0    0    0
SMALL
NO_CHARGES


@<TRIPOS>ATOM
   1 N1             0.8801     2.9031    -1.7507 N.am    
   2 C2             1.3127     2.2791    -2.8634 C.2     
   3 C3             2.5223     1.5552    -2.8634 C.2     
   4 C4             3.2719     1.4776    -1.7344 C.2     
   5 C5             2.8201     2.1334    -0.5620 C.ar    
   6 C6             3.5596     2.0849     0.6352 C.ar    
   7 N7             3.1407     2.6910     1.7152 N.ar    
   8 C8             1.9946     3.3877     1.7483 C.ar    
   9 C9             1.1861     3.4901     0.5895 C.ar    
  10 C10            1.6111     2.8452    -0.5957 C.ar    
  11 C11           -0.3864     4.8327     1.8169 C.ar    
  12 C12            0.4192     4.7279     2.9592 C.ar    
  13 C13            1.5821     4.0232     2.9310 C.ar    
  14 O14            0.6489     2.3409    -3.8842 O.2     
  15 C15           -0.3224     3.6204    -1.7779 C.ar    
  16 C16           -0.3153     4.9788    -2.0655 C.ar    
  17 C17           -1.5023     5.6844    -2.0919 C.ar    
  18 C18           -2.6989     5.0380    -1.8318 C.ar    
  19 C19           -2.7082     3.6830    -1.5447 C.ar    
  20 C20           -1.5244     2.9728    -1.5229 C.ar    
  21 C21           -0.0070     4.2179     0.6350 C.ar    
  22 C22           -1.6507     5.6068     1.8737 C.ar    
  23 C23           -2.7727     5.1638     1.1628 C.ar    
  24 F24           -3.8590     5.7300    -1.8576 F       
  25 C25           -3.9429     5.8625     1.2034 C.ar    
  26 C26           -4.0351     7.0309     1.9573 C.ar    
  27 C27           -2.9136     7.4876     2.6778 C.ar    
  28 C28           -1.7192     6.7634     2.6351 C.ar    
  29 C29           -1.4951     7.1588    -2.4035 C.3     
  30 N30           -5.0449     7.9278     2.1911 N.pl3   
  31 N31           -4.5761     8.9337     3.0421 N.2     
  32 C32           -3.3305     8.7137     3.3518 C.2     
  33 H33            2.8536     1.0604    -3.7644 H       
  34 H34            4.1992     0.9239    -1.7295 H       
  35 H35            4.4897     1.5366     0.6619 H       
  36 H36            0.1125     5.2134     3.8739 H       
  37 H37            2.1900     3.9518     3.8208 H       
  38 H38            0.6179     5.4834    -2.2681 H       
  39 H39           -3.6426     3.1807    -1.3421 H       
  40 H40           -1.5320     1.9163    -1.2991 H       
  41 H41           -0.6279     4.3003    -0.2449 H       
  42 H42           -2.7105     4.2593     0.5759 H       
  43 H43           -4.8004     5.5097     0.6496 H       
  44 H44           -0.8546     7.1060     3.1842 H       
  45 H45           -1.5966     7.3033    -3.4791 H       
  46 H46           -2.3273     7.6423    -1.8918 H       
  47 H47           -0.5564     7.5971    -2.0649 H       
  48 H48           -5.9414     7.8737     1.8245 H       
  49 H49           -2.7158     9.3283     3.9928 H       
@<TRIPOS>BOND
   1    1    2 am
   2    1   10 1
   3    1   15 1
   4    2    3 1
   5    2   14 2
   6    3    4 2
   7    3   33 1
   8    4    5 1
   9    4   34 1
  10    5    6 ar
  11    5   10 ar
  12    6    7 ar
  13    6   35 1
  14    7    8 ar
  15    8    9 ar
  16    8   13 ar
  17    9   10 ar
  18    9   21 ar
  19   11   12 ar
  20   11   22 1
  21   11   21 ar
  22   12   13 ar
  23   12   36 1
  24   13   37 1
  25   15   16 ar
  26   15   20 ar
  27   16   17 ar
  28   16   38 1
  29   17   18 ar
  30   17   29 1
  31   18   19 ar
  32   18   24 1
  33   19   20 ar
  34   19   39 1
  35   20   40 1
  36   21   41 1
  37   22   23 ar
  38   22   28 ar
  39   23   25 ar
  40   23   42 1
  41   25   26 ar
  42   25   43 1
  43   26   27 ar
  44   26   30 1
  45   27   28 ar
  46   27   32 1
  47   28   44 1
  48   29   45 1
  49   29   46 1
  50   29   47 1
  51   30   31 1
  52   30   48 1
  53   31   32 2
  54   32   49 1

#	End of record

