#	Name: ASD01914592
#	Creating user name:	WinNT
#	Creation time:	15. 06. 2019 20:03

#	Modifying user name:	WinNT
#	Modification time:	15. 06. 2019 20:03

#	Program:	/corina/corina34_cracker 3.40 0067  02.08.2006

@<TRIPOS>MOLECULE
ASD01914592
  60   64    0    0    0
SMALL
NO_CHARGES


@<TRIPOS>ATOM
   1 N1             0.0268     1.3902    -0.1032 N.2     
   2 C2            -0.0386     0.0588     0.0783 C.2     
   3 C3             1.2326    -0.4203     0.1481 C.2     
   4 N4             2.0696     0.6508     0.0048 N.pl3   
   5 C5             1.2866     1.7580    -0.1490 C.2     
   6 C6            -1.2805    -0.7464     0.1843 C.ar    
   7 C7            -2.5252    -0.1262     0.0953 C.ar    
   8 C8            -1.2055    -2.1258     0.3675 C.ar    
   9 C9            -2.3629    -2.8707     0.4656 C.ar    
  10 C10           -3.5982    -2.2492     0.3818 C.ar    
  11 C11           -3.6775    -0.8788     0.1945 C.ar    
  12 F12           -4.7289    -2.9823     0.4779 F       
  13 C13            1.7755     3.1414    -0.3361 C.ar    
  14 C14            3.0836     3.4759     0.0157 C.ar    
  15 C15            3.5337     4.7680    -0.1617 C.ar    
  16 C16            2.6909     5.7311    -0.6873 C.ar    
  17 C17            1.3926     5.4060    -1.0378 C.ar    
  18 C18            0.9322     4.1162    -0.8706 C.ar    
  19 C19            3.5341     0.6167     0.0150 C.3     
  20 C20            4.0323     0.8495     1.4181 C.2     
  21 O21            3.2418     1.0265     2.3207 O.2     
  22 N22            5.3563     0.8611     1.6699 N.am    
  23 C23            5.8638     1.0865     3.0318 C.3     
  24 C24            6.3318     0.6425     0.5911 C.3     
  25 C25            7.3072    -0.4542     1.0316 C.3     
  26 N26            7.8890    -0.0943     2.3316 N.3     
  27 C27            6.8585    -0.0286     3.3714 C.3     
  28 C28            8.8952    -0.9798     2.6848 C.ar    
  29 N29            8.8412    -1.6376     3.8411 N.ar    
  30 C30            9.9747    -1.1989     1.8330 C.ar    
  31 C31           10.9571    -2.0960     2.2327 C.ar    
  32 N32           10.8331    -2.7096     3.4063 N.ar    
  33 C33            9.7938    -2.4806     4.1834 C.ar    
  34 C34           12.9925    -3.2786     1.9216 C.3     
  35 O35           12.0269    -2.3429     1.4378 O.3     
  36 H36            1.5248    -1.4503     0.2897 H       
  37 H37           -2.5879     0.9421    -0.0508 H       
  38 H38           -0.2429    -2.6112     0.4322 H       
  39 H39           -2.3057    -3.9398     0.6076 H       
  40 H40           -4.6426    -0.3983     0.1297 H       
  41 H41            3.7424     2.7250     0.4265 H       
  42 H42            4.5459     5.0282     0.1106 H       
  43 H43            3.0480     6.7411    -0.8243 H       
  44 H44            0.7395     6.1625    -1.4472 H       
  45 H45           -0.0815     3.8637    -1.1446 H       
  46 H46            3.8774    -0.3566    -0.3356 H       
  47 H47            3.9203     1.3963    -0.6417 H       
  48 H48            6.3661     2.0526     3.0801 H       
  49 H49            5.0350     1.0658     3.7395 H       
  50 H50            5.8123     0.3284    -0.3143 H       
  51 H51            6.8800     1.5652     0.4006 H       
  52 H52            6.7740    -1.4006     1.1212 H       
  53 H53            8.1020    -0.5526     0.2922 H       
  54 H54            7.3256     0.1817     4.3335 H       
  55 H55            6.3323    -0.9818     3.4227 H       
  56 H56           10.0461    -0.6849     0.8858 H       
  57 H57            9.7234    -2.9953     5.1302 H       
  58 H58           13.7944    -3.3837     1.1909 H       
  59 H59           13.4050    -2.9201     2.8647 H       
  60 H60           12.5146    -4.2456     2.0783 H       
@<TRIPOS>BOND
   1    1    2 1
   2    1    5 2
   3    2    3 2
   4    2    6 1
   5    3    4 1
   6    3   36 1
   7    4    5 1
   8    4   19 1
   9    5   13 1
  10    6    7 ar
  11    6    8 ar
  12    7   11 ar
  13    7   37 1
  14    8    9 ar
  15    8   38 1
  16    9   10 ar
  17    9   39 1
  18   10   11 ar
  19   10   12 1
  20   11   40 1
  21   13   14 ar
  22   13   18 ar
  23   14   15 ar
  24   14   41 1
  25   15   16 ar
  26   15   42 1
  27   16   17 ar
  28   16   43 1
  29   17   18 ar
  30   17   44 1
  31   18   45 1
  32   19   20 1
  33   19   46 1
  34   19   47 1
  35   20   21 2
  36   20   22 am
  37   22   23 1
  38   22   24 1
  39   23   27 1
  40   23   48 1
  41   23   49 1
  42   24   25 1
  43   24   50 1
  44   24   51 1
  45   25   26 1
  46   25   52 1
  47   25   53 1
  48   26   27 1
  49   26   28 1
  50   27   54 1
  51   27   55 1
  52   28   29 ar
  53   28   30 ar
  54   29   33 ar
  55   30   31 ar
  56   30   56 1
  57   31   32 ar
  58   31   35 1
  59   32   33 ar
  60   33   57 1
  61   34   35 1
  62   34   58 1
  63   34   59 1
  64   34   60 1

#	End of record

