#	Name: ASD01150083
#	Creating user name:	WinNT
#	Creation time:	15. 06. 2019 19:03

#	Modifying user name:	WinNT
#	Modification time:	15. 06. 2019 19:03

#	Program:	/corina/corina34_cracker 3.40 0067  02.08.2006

@<TRIPOS>MOLECULE
ASD01150083
  52   54    0    0    0
SMALL
NO_CHARGES


@<TRIPOS>ATOM
   1 N1            -0.0167     1.3819     0.0096 N.pl3   
   2 C2             0.0021    -0.0041     0.0020 C.2     
   3 C3            -1.1092    -0.8394     0.0081 C.2     
   4 C4            -2.4628    -0.4504     0.0235 C.2     
   5 N5             1.0919    -0.7779    -0.0184 N.2     
   6 C6             0.7450    -2.0456    -0.0207 C.2     
   7 N7            -0.6087    -2.1437    -0.0045 N.pl3   
   8 O8            -2.7566     0.7315     0.0334 O.2     
   9 C9            -1.3604    -3.3270    -0.0018 C.ar    
  10 O10            1.6032    -3.0897    -0.0393 O.3     
  11 C11            2.9986    -2.7823    -0.0574 C.3     
  12 C12           -1.2906    -4.1923     1.0816 C.ar    
  13 C13           -2.0320    -5.3576     1.0824 C.ar    
  14 C14           -2.8442    -5.6633     0.0033 C.ar    
  15 C15           -2.9148    -4.8016    -1.0784 C.ar    
  16 C16           -2.1801    -3.6322    -1.0800 C.ar    
  17 F17           -3.5683    -6.8038     0.0057 F       
  18 C18            1.2419     2.1316     0.0016 C.3     
  19 C19            0.9465     3.6094     0.0124 C.ar    
  20 C20            0.6172     4.2418     1.2027 C.ar    
  21 C21            0.3460     5.6015     1.2120 C.ar    
  22 C22            0.4045     6.3257     0.0315 C.ar    
  23 C23            0.7343     5.6885    -1.1565 C.ar    
  24 C24            1.0093     4.3346    -1.1623 C.ar    
  25 O25            0.1387     7.6584     0.0374 O.3     
  26 C26            0.2178     8.3412    -1.2154 C.3     
  27 O27            0.5602     3.5290     2.3584 O.3     
  28 C28            0.2149     4.2451     3.5458 C.3     
  29 O29           -3.4348    -1.3879     0.0272 O.3     
  30 C30           -4.7856    -0.9219     0.0429 C.3     
  31 H31           -0.8633     1.8555     0.0162 H       
  32 H32            3.5744    -3.7078    -0.0712 H       
  33 H33            3.2303    -2.1970    -0.9472 H       
  34 H34            3.2557    -2.2078     0.8326 H       
  35 H35           -0.6568    -3.9546     1.9231 H       
  36 H36           -1.9780    -6.0310     1.9251 H       
  37 H37           -3.5483    -5.0421    -1.9194 H       
  38 H38           -2.2354    -2.9604    -1.9239 H       
  39 H39            1.8255     1.8713     0.8847 H       
  40 H40            1.8085     1.8809    -0.8951 H       
  41 H41            0.0892     6.0955     2.1375 H       
  42 H42            0.7797     6.2522    -2.0766 H       
  43 H43            1.2657     3.8405    -2.0878 H       
  44 H44            1.2261     8.2454    -1.6184 H       
  45 H45           -0.4956     7.9034    -1.9135 H       
  46 H46           -0.0166     9.3957    -1.0699 H       
  47 H47            0.2053     3.5598     4.3935 H       
  48 H48            0.9490     5.0312     3.7225 H       
  49 H49           -0.7729     4.6903     3.4273 H       
  50 H50           -5.4643    -1.7748     0.0443 H       
  51 H51           -4.9529    -0.3230     0.9382 H       
  52 H52           -4.9700    -0.3123    -0.8417 H       
@<TRIPOS>BOND
   1    1    2 1
   2    1   18 1
   3    1   31 1
   4    2    3 2
   5    2    5 1
   6    3    4 1
   7    3    7 1
   8    4    8 2
   9    4   29 1
  10    5    6 2
  11    6    7 1
  12    6   10 1
  13    7    9 1
  14    9   12 ar
  15    9   16 ar
  16   10   11 1
  17   11   32 1
  18   11   33 1
  19   11   34 1
  20   12   13 ar
  21   12   35 1
  22   13   14 ar
  23   13   36 1
  24   14   15 ar
  25   14   17 1
  26   15   16 ar
  27   15   37 1
  28   16   38 1
  29   18   19 1
  30   18   39 1
  31   18   40 1
  32   19   20 ar
  33   19   24 ar
  34   20   21 ar
  35   20   27 1
  36   21   22 ar
  37   21   41 1
  38   22   23 ar
  39   22   25 1
  40   23   24 ar
  41   23   42 1
  42   24   43 1
  43   25   26 1
  44   26   44 1
  45   26   45 1
  46   26   46 1
  47   27   28 1
  48   28   47 1
  49   28   48 1
  50   28   49 1
  51   29   30 1
  52   30   50 1
  53   30   51 1
  54   30   52 1

#	End of record

