#	Name: ASD01914473
#	Creating user name:	WinNT
#	Creation time:	15. 06. 2019 20:03

#	Modifying user name:	WinNT
#	Modification time:	15. 06. 2019 20:03

#	Program:	/corina/corina34_cracker 3.40 0067  02.08.2006

@<TRIPOS>MOLECULE
ASD01914473
  48   51    0    0    0
SMALL
NO_CHARGES


@<TRIPOS>ATOM
   1 C1            -0.4665     0.9487    -0.2963 C.ar    
   2 C2            -0.2358    -0.3845    -0.0164 C.ar    
   3 C3             0.5831     1.7757    -0.6517 C.ar    
   4 C4             1.8645     1.2674    -0.7284 C.ar    
   5 C5             2.0988    -0.0742    -0.4488 C.ar    
   6 C6             1.0463    -0.9020    -0.0890 C.ar    
   7 N7             3.4034    -0.5716    -0.5401 N.am    
   8 C8             3.7030    -1.8899     0.0350 C.3     
   9 S9             4.5903     0.3111    -1.2847 S.o2    
  10 C10            5.0208    -2.3913    -0.4970 C.2     
  11 N11            6.0822    -2.5008     0.3264 N.am    
  12 O12            5.1263    -2.6963    -1.6662 O.2     
  13 C13            7.2770    -3.0581    -0.1427 C.ar    
  14 C14            5.1897     1.4770    -0.1073 C.2     
  15 O15            5.6603    -0.5889    -1.5386 O.2     
  16 O16            3.9497     1.0645    -2.3051 O.2     
  17 C17            1.2639    -2.3574     0.2308 C.3     
  18 C18            8.4950    -2.6062     0.3477 C.ar    
  19 C19            9.6731    -3.1578    -0.1169 C.ar    
  20 C20            9.6410    -4.1592    -1.0694 C.ar    
  21 C21            8.4288    -4.6123    -1.5606 C.ar    
  22 C22            7.2467    -4.0681    -1.0953 C.ar    
  23 C23            2.5779    -2.8481    -0.3772 C.3     
  24 Cl24           8.3930    -5.8700    -2.7567 Cl      
  25 C25            6.2046     1.2798     0.7556 C.2     
  26 N26            6.3372     2.4329     1.4811 N.pl3   
  27 C27            5.3981     3.2952     1.0359 C.2     
  28 N28            4.7189     2.7185     0.0825 N.2     
  29 C29            7.3153     2.6846     2.5424 C.3     
  30 H30           -1.4697     1.3449    -0.2418 H       
  31 H31           -1.0594    -1.0258     0.2607 H       
  32 H32            0.4008     2.8177    -0.8694 H       
  33 H33            2.6852     1.9122    -1.0060 H       
  34 H34            3.7475    -1.8171     1.1217 H       
  35 H35            6.0179    -2.1933     1.2441 H       
  36 H36            1.2967    -2.4876     1.3125 H       
  37 H37            0.4385    -2.9426    -0.1746 H       
  38 H38            8.5212    -1.8236     1.0916 H       
  39 H39           10.6205    -2.8062     0.2642 H       
  40 H40           10.5636    -4.5886    -1.4313 H       
  41 H41            6.3009    -4.4216    -1.4785 H       
  42 H42            2.4935    -2.8664    -1.4637 H       
  43 H43            2.7986    -3.8502    -0.0093 H       
  44 H44            6.7992     0.3839     0.8562 H       
  45 H45            5.2384     4.2976     1.4049 H       
  46 H46            8.2207     3.1092     2.1088 H       
  47 H47            6.8956     3.3847     3.2647 H       
  48 H48            7.5573     1.7472     3.0432 H       
@<TRIPOS>BOND
   1    1    2 ar
   2    1    3 ar
   3    1   30 1
   4    2    6 ar
   5    2   31 1
   6    3    4 ar
   7    3   32 1
   8    4    5 ar
   9    4   33 1
  10    5    6 ar
  11    5    7 1
  12    6   17 1
  13    7    8 1
  14    7    9 am
  15    8   10 1
  16    8   23 1
  17    8   34 1
  18    9   14 1
  19    9   15 2
  20    9   16 2
  21   10   11 am
  22   10   12 2
  23   11   13 1
  24   11   35 1
  25   13   18 ar
  26   13   22 ar
  27   14   25 2
  28   14   28 1
  29   17   23 1
  30   17   36 1
  31   17   37 1
  32   18   19 ar
  33   18   38 1
  34   19   20 ar
  35   19   39 1
  36   20   21 ar
  37   20   40 1
  38   21   22 ar
  39   21   24 1
  40   22   41 1
  41   23   42 1
  42   23   43 1
  43   25   26 1
  44   25   44 1
  45   26   27 1
  46   26   29 1
  47   27   28 2
  48   27   45 1
  49   29   46 1
  50   29   47 1
  51   29   48 1

#	End of record

