#	Name: ASD01000086
#	Creating user name:	WinNT
#	Creation time:	15. 06. 2019 18:54

#	Modifying user name:	WinNT
#	Modification time:	15. 06. 2019 18:54

#	Program:	/corina/corina34_cracker 3.40 0067  02.08.2006

@<TRIPOS>MOLECULE
ASD01000086
  66   69    0    0    0
SMALL
NO_CHARGES


@<TRIPOS>ATOM
   1 C1             0.4403    -9.0499     1.0748 C.ar    
   2 C2             1.5113    -8.2245     1.3560 C.ar    
   3 C3             1.7977    -7.1521     0.5209 C.ar    
   4 C4             1.0053    -6.9137    -0.5948 C.ar    
   5 C5            -0.0642    -7.7430    -0.8702 C.ar    
   6 C6            -0.3465    -8.8097    -0.0367 C.ar    
   7 N7             2.8798    -6.3150     0.8026 N.pl3   
   8 N8             3.2367    -5.3040    -0.0992 N.am    
   9 C9             2.9238    -4.0118     0.1803 C.2     
  10 C10            2.1958    -3.7144     1.4658 C.3     
  11 C11            2.9272    -2.6026     2.2206 C.3     
  12 C12            3.8950    -5.6232    -1.2378 C.2     
  13 C13            4.2450    -4.5234    -2.1482 C.ar    
  14 C14            3.8733    -3.2119    -1.7768 C.ar    
  15 N15            3.2202    -3.0199    -0.6035 N.2     
  16 C16            4.9228    -4.7445    -3.3455 C.ar    
  17 C17            5.2252    -3.6863    -4.1569 C.ar    
  18 C18            4.8636    -2.3924    -3.8001 C.ar    
  19 C19            4.1923    -2.1471    -2.6214 C.ar    
  20 C20            0.2141    -2.5261    -1.0789 C.3     
  21 C21            0.6016    -2.0949     0.3370 C.3     
  22 N22            0.8288    -3.2824     1.1642 N.am    
  23 C23            2.1881    -2.3007     3.5258 C.3     
  24 C24           -0.2483    -1.3045    -1.8756 C.3     
  25 N25           -0.5098    -1.6974    -3.2667 N.3     
  26 Cl26           5.2618    -1.0697    -4.8516 Cl      
  27 O27            4.1862    -6.7763    -1.4978 O.2     
  28 C28           -0.2198    -3.9775     1.6478 C.2     
  29 C29           -1.5178    -3.9408     0.9441 C.ar    
  30 O30           -0.0972    -4.6347     2.6631 O.2     
  31 C31           -2.4409    -4.9764     1.1181 C.ar    
  32 C32           -3.6544    -4.9336     0.4556 C.ar    
  33 C33           -3.9536    -3.8708    -0.3756 C.ar    
  34 C34           -3.0430    -2.8426    -0.5515 C.ar    
  35 C35           -1.8317    -2.8685     0.1061 C.ar    
  36 F36           -2.1484    -6.0156     1.9303 F       
  37 C37            4.3548    -3.0538     2.5356 C.3     
  38 H38            0.2198    -9.8865     1.7212 H       
  39 H39            2.1252    -8.4124     2.2245 H       
  40 H40            1.2250    -6.0805    -1.2460 H       
  41 H41           -0.6809    -7.5580    -1.7373 H       
  42 H42           -1.1832    -9.4569    -0.2546 H       
  43 H43            3.3841    -6.4337     1.6227 H       
  44 H44            2.1652    -4.6129     2.0823 H       
  45 H45            2.9577    -1.7042     1.6042 H       
  46 H46            5.2081    -5.7463    -3.6309 H       
  47 H47            5.7508    -3.8576    -5.0847 H       
  48 H48            3.9157    -1.1383    -2.3529 H       
  49 H49            1.0769    -2.9754    -1.5708 H       
  50 H50           -0.5952    -3.2545    -1.0282 H       
  51 H51            1.5135    -1.4990     0.2985 H       
  52 H52           -0.2033    -1.4999     0.7686 H       
  53 H53            2.1575    -3.1991     4.1423 H       
  54 H54            2.7091    -1.5086     4.0636 H       
  55 H55            1.1710    -1.9793     3.3014 H       
  56 H56           -1.1612    -0.9062    -1.4328 H       
  57 H57            0.5292    -0.5409    -1.8538 H       
  58 H58           -0.8169    -0.9073    -3.8140 H       
  59 H59            0.3034    -2.1291    -3.6795 H       
  60 H60           -4.3692    -5.7323     0.5878 H       
  61 H61           -4.9023    -3.8423    -0.8909 H       
  62 H62           -3.2843    -2.0156    -1.2028 H       
  63 H63           -1.1234    -2.0652    -0.0329 H       
  64 H64            4.8814    -3.2689     1.6058 H       
  65 H65            4.8759    -2.2617     3.0734 H       
  66 H66            4.3242    -3.9522     3.1521 H       
@<TRIPOS>BOND
   1    1    2 ar
   2    1    6 ar
   3    1   38 1
   4    2    3 ar
   5    2   39 1
   6    3    4 ar
   7    3    7 1
   8    4    5 ar
   9    4   40 1
  10    5    6 ar
  11    5   41 1
  12    6   42 1
  13    7    8 1
  14    7   43 1
  15    8    9 1
  16    8   12 am
  17    9   10 1
  18    9   15 2
  19   10   11 1
  20   10   22 1
  21   10   44 1
  22   11   23 1
  23   11   37 1
  24   11   45 1
  25   12   13 1
  26   12   27 2
  27   13   14 ar
  28   13   16 ar
  29   14   15 1
  30   14   19 ar
  31   16   17 ar
  32   16   46 1
  33   17   18 ar
  34   17   47 1
  35   18   19 ar
  36   18   26 1
  37   19   48 1
  38   20   21 1
  39   20   24 1
  40   20   49 1
  41   20   50 1
  42   21   22 1
  43   21   51 1
  44   21   52 1
  45   22   28 am
  46   23   53 1
  47   23   54 1
  48   23   55 1
  49   24   25 1
  50   24   56 1
  51   24   57 1
  52   25   58 1
  53   25   59 1
  54   28   29 1
  55   28   30 2
  56   29   31 ar
  57   29   35 ar
  58   31   32 ar
  59   31   36 1
  60   32   33 ar
  61   32   60 1
  62   33   34 ar
  63   33   61 1
  64   34   35 ar
  65   34   62 1
  66   35   63 1
  67   37   64 1
  68   37   65 1
  69   37   66 1

#	End of record

