#	Name: ASD06020120
#	Creating user name:	WinNT
#	Creation time:	15. 06. 2019 21:04

#	Modifying user name:	WinNT
#	Modification time:	15. 06. 2019 21:04

#	Program:	/corina/corina34_cracker 3.40 0067  02.08.2006

@<TRIPOS>MOLECULE
ASD06020120
  36   39    0    0    0
SMALL
NO_CHARGES


@<TRIPOS>ATOM
   1 C1             0.0070    -0.0032     0.0569 C.1     
   2 C2            -0.0132     1.4287     0.0547 C.ar    
   3 C3             1.1869     2.1441     0.0333 C.ar    
   4 C4             1.1678     3.5218     0.0311 C.ar    
   5 C5            -0.0522     4.2037     0.0503 C.ar    
   6 C6            -1.2526     3.4878     0.0716 C.ar    
   7 C7            -1.2330     2.1101     0.0680 C.ar    
   8 N8             0.0230    -1.1391     0.0587 N.1     
   9 Cl9           -2.7680     4.3343     0.0954 Cl      
  10 Cl10           2.6588     4.4106     0.0052 Cl      
  11 C11           -0.8920     9.4871     0.0548 C.ar    
  12 C12           -0.5509     8.1300     0.0520 C.ar    
  13 C13            0.7981     7.7572     0.0301 C.ar    
  14 C14            1.7568     8.8042     0.0122 C.ar    
  15 C15            1.3364    10.0982     0.0169 C.ar    
  16 N16            0.0500    10.4129     0.0374 N.ar    
  17 S17           -1.5295     6.6672     0.0710 S.3     
  18 C18           -0.0730     5.6812     0.0484 C.2     
  19 N19            0.9769     6.4358     0.0295 N.2     
  20 F20            3.0769     8.5176    -0.0089 F       
  21 N21           -2.2332     9.8640     0.0707 N.pl3   
  22 C22           -1.9540    13.4007     0.4962 C.ar    
  23 N23           -1.6373    12.1266     0.3865 N.ar    
  24 C24           -2.5761    11.2037     0.1855 C.ar    
  25 C25           -3.9060    11.6025     0.0917 C.ar    
  26 C26           -4.1977    12.9577     0.2131 C.ar    
  27 N27           -3.2008    13.8180     0.4132 N.ar    
  28 N28           -5.5067    13.4059     0.1265 N.pl3   
  29 H29            2.1295     1.6172     0.0189 H       
  30 H30           -2.1604     1.5569     0.0796 H       
  31 H31            2.0711    10.8897     0.0032 H       
  32 H32           -2.9273     9.1899     0.0016 H       
  33 H33           -1.1692    14.1235     0.6635 H       
  34 H34           -4.6912    10.8792    -0.0714 H       
  35 H35           -6.2273    12.7732    -0.0197 H       
  36 H36           -5.7020    14.3522     0.2121 H       
@<TRIPOS>BOND
   1    1    2 1
   2    1    8 3
   3    2    3 ar
   4    2    7 ar
   5    3    4 ar
   6    3   29 1
   7    4    5 ar
   8    4   10 1
   9    5    6 ar
  10    5   18 1
  11    6    7 ar
  12    6    9 1
  13    7   30 1
  14   11   12 ar
  15   11   16 ar
  16   11   21 1
  17   12   13 ar
  18   12   17 1
  19   13   14 ar
  20   13   19 1
  21   14   15 ar
  22   14   20 1
  23   15   16 ar
  24   15   31 1
  25   17   18 1
  26   18   19 2
  27   21   24 1
  28   21   32 1
  29   22   23 ar
  30   22   27 ar
  31   22   33 1
  32   23   24 ar
  33   24   25 ar
  34   25   26 ar
  35   25   34 1
  36   26   27 ar
  37   26   28 1
  38   28   35 1
  39   28   36 1

#	End of record

