#	Name: ASD04882145
#	Creating user name:	WinNT
#	Creation time:	15. 06. 2019 20:54

#	Modifying user name:	WinNT
#	Modification time:	15. 06. 2019 20:54

#	Program:	/corina/corina34_cracker 3.40 0067  02.08.2006

@<TRIPOS>MOLECULE
ASD04882145
  80   84    0    0    0
SMALL
NO_CHARGES


@<TRIPOS>ATOM
   1 O1            -0.0241     1.3589    -0.0922 O.3     
   2 C2            -0.0683     0.1224     0.4456 C.2     
   3 C3            -1.2424    -0.7546     0.4942 C.2     
   4 N4            -2.4136    -0.3423    -0.0300 N.am    
   5 C5            -3.5020    -1.2223    -0.0913 C.ar    
   6 C6            -4.8037    -0.7363     0.0600 C.ar    
   7 C7            -5.8846    -1.6084    -0.0006 C.ar    
   8 C8            -5.6772    -2.9536    -0.2103 C.ar    
   9 C9            -4.3780    -3.4462    -0.3628 C.ar    
  10 C10           -3.2898    -2.5709    -0.3070 C.ar    
  11 N11           -5.0181     0.6231     0.2721 N.3     
  12 C12           -4.4777     1.0450     1.5720 C.3     
  13 C13           -6.4460     0.9539     0.1663 C.3     
  14 C14           -6.6301     2.4649     0.3262 C.3     
  15 N15           -6.0898     2.8867     1.6261 N.3     
  16 C16           -4.6618     2.5559     1.7320 C.3     
  17 C17           -6.3048     4.2503     1.8389 C.ar    
  18 C18           -5.7702     5.1845     0.9612 C.ar    
  19 C19           -7.0588     4.6749     2.9258 C.ar    
  20 C20           -7.2694     6.0237     3.1333 C.ar    
  21 C21           -6.7312     6.9516     2.2603 C.ar    
  22 C22           -5.9847     6.5322     1.1746 C.ar    
  23 C23           -7.6465     3.6645     3.8771 C.3     
  24 C24           -4.1561    -4.8873    -0.5874 C.2     
  25 N25           -5.2064    -5.7298    -0.6456 N.am    
  26 O26           -3.0256    -5.3149    -0.7200 O.2     
  27 C27           -4.9861    -7.1609    -0.8687 C.3     
  28 C28           -6.3327    -7.8868    -0.8915 C.3     
  29 C29           -6.1025    -9.3814    -1.1244 C.3     
  30 N30           -7.3919   -10.0764    -1.1463 N.am    
  31 C31           -8.1271   -10.2763    -2.2537 C.2     
  32 C32           -8.0440   -10.6495     0.0371 C.3     
  33 C33           -9.5175   -10.8706    -0.3707 C.3     
  34 C34           -9.3998   -11.0169    -1.9066 C.3     
  35 O35           -7.8158    -9.9150    -3.3688 O.2     
  36 C36            1.1722    -0.1695     0.9363 C.2     
  37 C37            1.9825     0.9465     0.6750 C.2     
  38 C38            1.2109     1.8591     0.0443 C.2     
  39 C39            1.6652     3.2162    -0.4279 C.3     
  40 C40            2.1893     3.1084    -1.8613 C.3     
  41 O41           -1.1593    -1.8549     1.0078 O.2     
  42 H42           -2.5029     0.5637    -0.3648 H       
  43 H43           -6.8893    -1.2301     0.1173 H       
  44 H44           -6.5190    -3.6286    -0.2565 H       
  45 H45           -2.2848    -2.9486    -0.4246 H       
  46 H46           -5.0078     0.5274     2.3715 H       
  47 H47           -3.4166     0.8007     1.6213 H       
  48 H48           -6.8199     0.6433    -0.8094 H       
  49 H49           -6.9985     0.4353     0.9498 H       
  50 H50           -6.1000     2.9825    -0.4733 H       
  51 H51           -7.6913     2.7091     0.2770 H       
  52 H52           -4.2880     2.8665     2.7076 H       
  53 H53           -4.1093     3.0745     0.9485 H       
  54 H54           -5.1870     4.8576     0.1129 H       
  55 H55           -7.8554     6.3544     3.9780 H       
  56 H56           -6.8980     8.0059     2.4244 H       
  57 H57           -5.5658     7.2594     0.4948 H       
  58 H58           -6.9365     3.4654     4.6798 H       
  59 H59           -8.5713     4.0579     4.2992 H       
  60 H60           -7.8568     2.7395     3.3402 H       
  61 H61           -6.1083    -5.3887    -0.5399 H       
  62 H62           -4.4788    -7.3061    -1.8225 H       
  63 H63           -4.3700    -7.5633    -0.0646 H       
  64 H64           -6.8399    -7.7416     0.0623 H       
  65 H65           -6.9488    -7.4844    -1.6956 H       
  66 H66           -5.5953    -9.5265    -2.0782 H       
  67 H67           -5.4864    -9.7838    -0.3203 H       
  68 H68           -7.5790   -11.5993     0.3011 H       
  69 H69           -7.9846    -9.9540     0.8744 H       
  70 H70           -9.9136   -11.7820     0.0772 H       
  71 H71          -10.1295   -10.0089    -0.1042 H       
  72 H72          -10.2558   -10.5568    -2.4003 H       
  73 H73           -9.3174   -12.0676    -2.1846 H       
  74 H74            1.4718    -1.0822     1.4299 H       
  75 H75            3.0262     1.0553     0.9301 H       
  76 H76            0.8256     3.9107    -0.3994 H       
  77 H77            2.4600     3.5802     0.2231 H       
  78 H78            2.5179     4.0900    -2.2029 H       
  79 H79            3.0290     2.4139    -1.8899 H       
  80 H80            1.3945     2.7444    -2.5124 H       
@<TRIPOS>BOND
   1    1    2 1
   2    1   38 1
   3    2    3 1
   4    2   36 2
   5    3    4 am
   6    3   41 2
   7    4    5 1
   8    4   42 1
   9    5    6 ar
  10    5   10 ar
  11    6    7 ar
  12    6   11 1
  13    7    8 ar
  14    7   43 1
  15    8    9 ar
  16    8   44 1
  17    9   10 ar
  18    9   24 1
  19   10   45 1
  20   11   12 1
  21   11   13 1
  22   12   16 1
  23   12   46 1
  24   12   47 1
  25   13   14 1
  26   13   48 1
  27   13   49 1
  28   14   15 1
  29   14   50 1
  30   14   51 1
  31   15   16 1
  32   15   17 1
  33   16   52 1
  34   16   53 1
  35   17   18 ar
  36   17   19 ar
  37   18   22 ar
  38   18   54 1
  39   19   20 ar
  40   19   23 1
  41   20   21 ar
  42   20   55 1
  43   21   22 ar
  44   21   56 1
  45   22   57 1
  46   23   58 1
  47   23   59 1
  48   23   60 1
  49   24   25 am
  50   24   26 2
  51   25   27 1
  52   25   61 1
  53   27   28 1
  54   27   62 1
  55   27   63 1
  56   28   29 1
  57   28   64 1
  58   28   65 1
  59   29   30 1
  60   29   66 1
  61   29   67 1
  62   30   31 am
  63   30   32 1
  64   31   35 2
  65   31   34 1
  66   32   33 1
  67   32   68 1
  68   32   69 1
  69   33   34 1
  70   33   70 1
  71   33   71 1
  72   34   72 1
  73   34   73 1
  74   36   37 1
  75   36   74 1
  76   37   38 2
  77   37   75 1
  78   38   39 1
  79   39   40 1
  80   39   76 1
  81   39   77 1
  82   40   78 1
  83   40   79 1
  84   40   80 1

#	End of record

