#	Name: ASD01941021
#	Creating user name:	WinNT
#	Creation time:	15. 06. 2019 20:13

#	Modifying user name:	WinNT
#	Modification time:	15. 06. 2019 20:13

#	Program:	/corina/corina34_cracker 3.40 0067  02.08.2006

@<TRIPOS>MOLECULE
ASD01941021
  54   58    0    0    0
SMALL
NO_CHARGES


@<TRIPOS>ATOM
   1 N1             0.2734     1.9507    -1.5593 N.am    
   2 C2             0.6125     0.6512    -1.5796 C.2     
   3 N3            -0.2786    -0.3347    -1.3811 N.am    
   4 C4            -1.5996    -0.0525    -1.1440 C.2     
   5 C5            -2.0050     1.2825    -1.1121 C.2     
   6 C6            -1.0038     2.3286    -1.3282 C.2     
   7 N7            -2.5088    -1.0405    -0.9426 N.am    
   8 C8            -3.8041    -0.7689    -0.7108 C.2     
   9 C9            -4.2850     0.5414    -0.6640 C.2     
  10 C10           -3.4082     1.5987    -0.8602 C.2     
  11 C11            0.1475    -1.6691    -1.4174 C.ar    
  12 C12            0.3471    -2.3027    -2.6366 C.ar    
  13 C13            0.7670    -3.6181    -2.6690 C.ar    
  14 C14            0.9886    -4.3040    -1.4889 C.ar    
  15 C15            0.7906    -3.6756    -0.2731 C.ar    
  16 C16            0.3763    -2.3586    -0.2342 C.ar    
  17 C17           -2.0668    -2.4367    -0.9793 C.3     
  18 O18           -4.5822    -1.6930    -0.5367 O.2     
  19 N19           -3.8483     2.9066    -0.8208 N.pl3   
  20 C20           -3.4470     3.7478     0.2207 C.ar    
  21 C21           -2.7225     3.2324     1.2884 C.ar    
  22 C22           -2.3251     4.0594     2.3175 C.ar    
  23 C23           -2.6508     5.4161     2.2871 C.ar    
  24 C24           -3.3790     5.9329     1.2135 C.ar    
  25 C25           -3.7692     5.1021     0.1837 C.ar    
  26 O26            1.7732     0.3549    -1.7863 O.2     
  27 C27            1.3007     2.9706    -1.7843 C.3     
  28 O28           -1.3142     3.5052    -1.3086 O.2     
  29 C29            1.9820     2.9969    -3.1539 C.3     
  30 C30            0.9797     4.0897    -2.7769 C.3     
  31 F31           -4.4738     5.6003    -0.8558 F       
  32 C32           -2.2263     6.3040     3.3891 C.2     
  33 C33           -2.5364     7.5931     3.3590 C.2     
  34 H34           -5.3316     0.7303    -0.4761 H       
  35 H35            0.1739    -1.7677    -3.5586 H       
  36 H36            0.9221    -4.1116    -3.6171 H       
  37 H37            1.3166    -5.3326    -1.5169 H       
  38 H38            0.9642    -4.2140     0.6469 H       
  39 H39            0.2222    -1.8683     0.7157 H       
  40 H40           -1.6429    -2.7093    -0.0128 H       
  41 H41           -2.9180    -3.0817    -1.1976 H       
  42 H42           -1.3106    -2.5582    -1.7549 H       
  43 H43           -4.4360     3.2417    -1.5158 H       
  44 H44           -2.4707     2.1825     1.3124 H       
  45 H45           -1.7623     3.6574     3.1470 H       
  46 H46           -3.6325     6.9824     1.1872 H       
  47 H47            1.9072     3.2266    -0.9155 H       
  48 H48            3.0366     3.2707    -3.1863 H       
  49 H49            1.6659     2.2554    -3.8877 H       
  50 H50            0.0042     4.0671    -3.2626 H       
  51 H51            1.3749     5.0824    -2.5612 H       
  52 H52           -1.6634     5.9033     4.2192 H       
  53 H53           -2.2261     8.2421     4.1646 H       
  54 H54           -3.0992     7.9938     2.5290 H       
@<TRIPOS>BOND
   1    1    2 am
   2    1   27 1
   3    1    6 am
   4    2    3 am
   5    2   26 2
   6    3    4 1
   7    3   11 1
   8    4    5 2
   9    4    7 1
  10    5    6 1
  11    5   10 1
  12    6   28 2
  13    7    8 am
  14    7   17 1
  15    8    9 1
  16    8   18 2
  17    9   10 2
  18    9   34 1
  19   10   19 1
  20   11   12 ar
  21   11   16 ar
  22   12   13 ar
  23   12   35 1
  24   13   14 ar
  25   13   36 1
  26   14   15 ar
  27   14   37 1
  28   15   16 ar
  29   15   38 1
  30   16   39 1
  31   17   40 1
  32   17   41 1
  33   17   42 1
  34   19   20 1
  35   19   43 1
  36   20   21 ar
  37   20   25 ar
  38   21   22 ar
  39   21   44 1
  40   22   23 ar
  41   22   45 1
  42   23   24 ar
  43   23   32 1
  44   24   25 ar
  45   24   46 1
  46   25   31 1
  47   27   29 1
  48   27   30 1
  49   27   47 1
  50   29   30 1
  51   29   48 1
  52   29   49 1
  53   30   50 1
  54   30   51 1
  55   32   33 2
  56   32   52 1
  57   33   53 1
  58   33   54 1

#	End of record

