#	Name: ASD02198468
#	Creating user name:	WinNT
#	Creation time:	15. 06. 2019 20:19

#	Modifying user name:	WinNT
#	Modification time:	15. 06. 2019 20:19

#	Program:	/corina/corina34_cracker 3.40 0067  02.08.2006

@<TRIPOS>MOLECULE
ASD02198468
  44   47    0    0    0
SMALL
NO_CHARGES


@<TRIPOS>ATOM
   1 C1             0.0865     1.0021    -0.1348 C.2     
   2 C2             0.3540    -0.3253    -0.2188 C.2     
   3 N3             1.6287    -0.7770    -0.2189 N.pl3   
   4 N4             2.6492    -0.0051    -0.1421 N.2     
   5 C5             2.5317     1.3023    -0.0563 C.2     
   6 C6             1.1833     1.8930    -0.0481 C.2     
   7 C7             1.8444    -2.1563    -0.3067 C.ar    
   8 C8             0.9875    -4.3960    -0.3208 C.ar    
   9 C9             2.2712    -4.8846    -0.4806 C.ar    
  10 C10            3.3429    -4.0129    -0.5480 C.ar    
  11 C11            3.1335    -2.6509    -0.4616 C.ar    
  12 C12            3.7300     2.1613     0.0311 C.2     
  13 N13            4.8675     1.8983     0.7415 N.pl3   
  14 N14            5.7483     2.9699     0.5485 N.2     
  15 C15            5.1791     3.8458    -0.2407 C.2     
  16 C16            3.9140     3.3757    -0.5929 C.2     
  17 C17            5.1089     0.7613     1.5230 C.ar    
  18 C18            6.3466     0.1331     1.4740 C.ar    
  19 O19            1.0178     3.1011     0.0298 O.2     
  20 C20            0.7710    -3.0347    -0.2337 C.ar    
  21 C21            4.1132     0.2632     2.3527 C.ar    
  22 C22            4.3543    -0.8583     3.1222 C.ar    
  23 C23            5.5856    -1.4848     3.0669 C.ar    
  24 C24            6.5814    -0.9877     2.2457 C.ar    
  25 C25            7.9218    -1.6740     2.1881 C.3     
  26 C26           -0.1771    -5.3496    -0.2479 C.3     
  27 F27            0.2882    -6.6638    -0.3645 F       
  28 F28           -0.8314    -5.1937     0.9788 F       
  29 F29           -1.0693    -5.0766    -1.2903 F       
  30 H30           -0.9298     1.3675    -0.1384 H       
  31 H31           -0.4614    -1.0303    -0.2861 H       
  32 H32            2.4373    -5.9494    -0.5526 H       
  33 H33            4.3443    -4.3979    -0.6725 H       
  34 H34            3.9708    -1.9707    -0.5146 H       
  35 H35            5.6179     4.7769    -0.5676 H       
  36 H36            3.2038     3.8765    -1.2342 H       
  37 H37            7.1244     0.5205     0.8327 H       
  38 H38           -0.2318    -2.6538    -0.1085 H       
  39 H39            3.1513     0.7524     2.3966 H       
  40 H40            3.5803    -1.2460     3.7680 H       
  41 H41            5.7718    -2.3613     3.6697 H       
  42 H42            7.9080    -2.4332     1.4061 H       
  43 H43            8.6967    -0.9397     1.9680 H       
  44 H44            8.1302    -2.1454     3.1485 H       
@<TRIPOS>BOND
   1    1    2 2
   2    1    6 1
   3    1   30 1
   4    2    3 1
   5    2   31 1
   6    3    4 1
   7    3    7 1
   8    4    5 2
   9    5    6 1
  10    5   12 1
  11    6   19 2
  12    7   20 ar
  13    7   11 ar
  14    8    9 ar
  15    8   26 1
  16    8   20 ar
  17    9   10 ar
  18    9   32 1
  19   10   11 ar
  20   10   33 1
  21   11   34 1
  22   12   13 1
  23   12   16 2
  24   13   14 1
  25   13   17 1
  26   14   15 2
  27   15   16 1
  28   15   35 1
  29   16   36 1
  30   17   21 ar
  31   17   18 ar
  32   18   24 ar
  33   18   37 1
  34   20   38 1
  35   21   22 ar
  36   21   39 1
  37   22   23 ar
  38   22   40 1
  39   23   24 ar
  40   23   41 1
  41   24   25 1
  42   25   42 1
  43   25   43 1
  44   25   44 1
  45   26   27 1
  46   26   28 1
  47   26   29 1

#	End of record

