#	Name: ASD04660009
#	Creating user name:	WinNT
#	Creation time:	15. 06. 2019 20:52

#	Modifying user name:	WinNT
#	Modification time:	15. 06. 2019 20:52

#	Program:	/corina/corina34_cracker 3.40 0067  02.08.2006

@<TRIPOS>MOLECULE
ASD04660009
  44   47    0    0    0
SMALL
NO_CHARGES


@<TRIPOS>ATOM
   1 C1             6.3768     1.5100     2.8814 C.ar    
   2 C2             6.4399     0.1194     2.8050 C.ar    
   3 C3             5.6572    -0.6203     1.9588 C.ar    
   4 C4             4.7434     0.0436     1.1232 C.ar    
   5 C5             4.6924     1.4352     1.2124 C.ar    
   6 C6             5.4893     2.2016     2.0752 C.ar    
   7 C7             3.8753    -0.5694     0.2040 C.ar    
   8 C8             3.0439     0.2242    -0.5380 C.ar    
   9 C9             3.0142     1.6144    -0.4283 C.ar    
  10 C10            3.8523     2.2550     0.4648 C.ar    
  11 N11            4.1137     3.5626     0.8545 N.am    
  12 C12            5.0798     3.5859     1.8104 C.2     
  13 O13            5.5269     4.5800     2.3513 O.2     
  14 S14            3.8584    -2.3207     0.0110 S.o2    
  15 O15            2.8502    -2.6089    -0.9480 O.2     
  16 O16            5.2133    -2.7208    -0.1416 O.2     
  17 N17            3.3386    -2.9669     1.4444 N.am    
  18 C18            1.9767    -2.7033     1.9157 C.3     
  19 C19            1.6230    -3.6896     3.0305 C.3     
  20 C20            0.2221    -3.4186     3.5153 C.ar    
  21 O21            1.7032    -5.0251     2.5283 O.3     
  22 C22            0.0164    -2.6094     4.6170 C.ar    
  23 C23           -0.8575    -3.9745     2.8548 C.ar    
  24 C24           -2.1426    -3.7258     3.2994 C.ar    
  25 C25           -2.3480    -2.9216     4.4048 C.ar    
  26 C26           -1.2687    -2.3608     5.0617 C.ar    
  27 N27           -3.7240    -2.6549     4.8806 N.pl3   
  28 O28           -4.6753    -3.1441     4.2981 O.2     
  29 O29           -3.9050    -1.9463     5.8546 O.2     
  30 H30            7.0144     2.0449     3.5697 H       
  31 H31            7.1397    -0.3993     3.4435 H       
  32 H32            5.7413    -1.6968     1.9339 H       
  33 H33            2.3777    -0.2491    -1.2441 H       
  34 H34            2.3367     2.1902    -1.0414 H       
  35 H35            3.6705     4.3470     0.4951 H       
  36 H36            3.9359    -3.5198     1.9721 H       
  37 H37            1.9155    -1.6847     2.2988 H       
  38 H38            1.2766    -2.8232     1.0889 H       
  39 H39            2.3231    -3.5698     3.8573 H       
  40 H40            1.1059    -5.2038     1.7891 H       
  41 H41            0.8596    -2.1717     5.1306 H       
  42 H42           -0.6970    -4.6028     1.9911 H       
  43 H43           -2.9861    -4.1596     2.7829 H       
  44 H44           -1.4292    -1.7324     5.9253 H       
@<TRIPOS>BOND
   1    1    2 ar
   2    1    6 ar
   3    1   30 1
   4    2    3 ar
   5    2   31 1
   6    3    4 ar
   7    3   32 1
   8    4    5 ar
   9    4    7 ar
  10    5    6 ar
  11    5   10 ar
  12    6   12 1
  13    7    8 ar
  14    7   14 1
  15    8    9 ar
  16    8   33 1
  17    9   10 ar
  18    9   34 1
  19   10   11 1
  20   11   12 am
  21   11   35 1
  22   12   13 2
  23   14   15 2
  24   14   16 2
  25   14   17 am
  26   17   18 1
  27   17   36 1
  28   18   19 1
  29   18   37 1
  30   18   38 1
  31   19   20 1
  32   19   21 1
  33   19   39 1
  34   20   22 ar
  35   20   23 ar
  36   21   40 1
  37   22   26 ar
  38   22   41 1
  39   23   24 ar
  40   23   42 1
  41   24   25 ar
  42   24   43 1
  43   25   26 ar
  44   25   27 1
  45   26   44 1
  46   27   28 2
  47   27   29 2

#	End of record

