#	Name: ASD00840673
#	Creating user name:	WinNT
#	Creation time:	15. 06. 2019 18:39

#	Modifying user name:	WinNT
#	Modification time:	15. 06. 2019 18:39

#	Program:	/corina/corina34_cracker 3.40 0067  02.08.2006

@<TRIPOS>MOLECULE
ASD00840673
  90   95    0    0    0
SMALL
NO_CHARGES


@<TRIPOS>ATOM
   1 N1             1.0484     1.4362    -0.7550 N.ar    
   2 C2             1.3088     0.1435    -0.8558 C.ar    
   3 C3             1.2272    -0.6839     0.2571 C.ar    
   4 C4             0.8689    -0.1378     1.4771 C.ar    
   5 C5             0.6036     1.2234     1.5410 C.ar    
   6 C6             0.7043     1.9856     0.3944 C.ar    
   7 C7             1.5244    -2.1564     0.1374 C.3     
   8 C8             1.2345    -2.8642     1.4438 C.2     
   9 C9             0.7101    -2.7757    -1.0003 C.3     
  10 C10           -0.7520    -2.4754    -0.7928 C.2     
  11 N11           -1.6726    -3.0006    -1.6254 N.am    
  12 O12           -1.1003    -1.7612     0.1235 O.2     
  13 C13           -3.0925    -2.6355    -1.5077 C.3     
  14 C14           -3.6003    -2.2046    -2.8878 C.3     
  15 N15           -3.3098    -3.2622    -3.8651 N.3     
  16 C16           -1.8630    -3.4712    -4.0098 C.3     
  17 C17           -1.2831    -3.9493    -2.6796 C.3     
  18 N18           -3.9249    -2.9682    -5.1493 N.3     
  19 C19           -3.6343    -4.0262    -6.1270 C.3     
  20 C20           -4.3629    -3.7201    -7.4377 C.3     
  21 N21           -3.9305    -2.4089    -7.9408 N.3     
  22 C22           -4.2211    -1.3509    -6.9632 C.3     
  23 C23           -3.4924    -1.6569    -5.6525 C.3     
  24 C24           -4.5519    -2.1118    -9.2384 C.3     
  25 O25            0.1593    -2.9371     2.0001 O.2     
  26 N26            2.3912    -3.3972     1.8709 N.am    
  27 C27            3.0032    -2.3825    -0.0814 C.ar    
  28 C28            3.4476    -3.1351     1.0031 C.ar    
  29 C29            3.8660    -1.9978    -1.0761 C.ar    
  30 C30            5.2151    -2.3634    -1.0071 C.ar    
  31 C31            5.6691    -3.1200     0.0800 C.ar    
  32 C32            4.7918    -3.5014     1.0725 C.ar    
  33 F33            6.9696    -3.4780     0.1558 F       
  34 C34            2.2505    -5.9577     2.8704 C.ar    
  35 C35            0.9990    -6.3590     2.4269 C.ar    
  36 C36            3.2688    -6.8836     2.9916 C.ar    
  37 C37            3.0414    -8.2089     2.6709 C.ar    
  38 C38            1.7946    -8.6116     2.2286 C.ar    
  39 C39            0.7731    -7.6899     2.1061 C.ar    
  40 H40            1.6194    -9.6475     1.9786 H       
  41 O41           -0.0044    -5.4503     2.3072 O.3     
  42 C42           -1.2667    -5.9348     1.8446 C.3     
  43 C43           -2.2633    -4.7760     1.7748 C.3     
  44 C44            6.1239    -1.9673    -2.0405 C.1     
  45 N45            6.8449    -1.6531    -2.8602 N.1     
  46 O46            1.6587    -0.3797    -2.0578 O.3     
  47 C47            2.1523    -0.2299    -4.4188 C.3     
  48 C48            1.6163     0.4982    -3.1845 C.3     
  49 S49            2.5434    -4.2672     3.2718 S.o2    
  50 O50            3.9090    -4.1764     3.6542 O.2     
  51 O51            1.4721    -3.8632     4.1134 O.2     
  52 H52            0.7969    -0.7566     2.3594 H       
  53 H53            0.3210     1.6810     2.4775 H       
  54 H54            0.4993     3.0450     0.4388 H       
  55 H55            1.0361    -2.3546    -1.9514 H       
  56 H56            0.8616    -3.8550    -1.0098 H       
  57 H57           -3.6641    -3.4957    -1.1594 H       
  58 H58           -3.2013    -1.8106    -0.8036 H       
  59 H59           -4.6763    -2.0362    -2.8432 H       
  60 H60           -3.0998    -1.2841    -3.1884 H       
  61 H61           -1.6790    -4.2213    -4.7789 H       
  62 H62           -1.3867    -2.5331    -4.2948 H       
  63 H63           -0.1963    -3.9956    -2.7495 H       
  64 H64           -1.6798    -4.9360    -2.4408 H       
  65 H65           -2.5604    -4.0681    -6.3091 H       
  66 H66           -3.9750    -4.9853    -5.7369 H       
  67 H67           -4.1256    -4.4884    -8.1736 H       
  68 H68           -5.4384    -3.7052    -7.2609 H       
  69 H69           -3.8804    -0.3918    -7.3533 H       
  70 H70           -5.2949    -1.3090    -6.7811 H       
  71 H71           -3.7297    -0.8887    -4.9166 H       
  72 H72           -2.4170    -1.6719    -5.8293 H       
  73 H73           -5.6363    -2.1037    -9.1285 H       
  74 H74           -4.2148    -1.1359    -9.5878 H       
  75 H75           -4.2657    -2.8755    -9.9616 H       
  76 H76            3.5051    -1.4146    -1.9103 H       
  77 H77            5.1473    -4.0851     1.9088 H       
  78 H78            4.2434    -6.5716     3.3369 H       
  79 H79            3.8389    -8.9310     2.7657 H       
  80 H80           -0.2006    -8.0050     1.7612 H       
  81 H81           -1.1471    -6.3713     0.8530 H       
  82 H82           -1.6391    -6.6934     2.5330 H       
  83 H83           -2.3829    -4.3394     2.7664 H       
  84 H84           -1.8908    -4.0174     1.0864 H       
  85 H85           -3.2261    -5.1455     1.4220 H       
  86 H86            3.1492    -0.6170    -4.2079 H       
  87 H87            1.4875    -1.0562    -4.6704 H       
  88 H88            2.2021     0.4647    -5.2573 H       
  89 H89            0.5872     0.8091    -3.3644 H       
  90 H90            2.2313     1.3757    -2.9848 H       
@<TRIPOS>BOND
   1    1    2 ar
   2    1    6 ar
   3    2    3 ar
   4    2   46 1
   5    3    4 ar
   6    3    7 1
   7    4    5 ar
   8    4   52 1
   9    5    6 ar
  10    5   53 1
  11    6   54 1
  12    7    8 1
  13    7    9 1
  14    7   27 1
  15    8   25 2
  16    8   26 am
  17    9   10 1
  18    9   55 1
  19    9   56 1
  20   10   11 am
  21   10   12 2
  22   11   13 1
  23   11   17 1
  24   13   14 1
  25   13   57 1
  26   13   58 1
  27   14   15 1
  28   14   59 1
  29   14   60 1
  30   15   16 1
  31   15   18 1
  32   16   17 1
  33   16   61 1
  34   16   62 1
  35   17   63 1
  36   17   64 1
  37   18   19 1
  38   18   23 1
  39   19   20 1
  40   19   65 1
  41   19   66 1
  42   20   21 1
  43   20   67 1
  44   20   68 1
  45   21   22 1
  46   21   24 1
  47   22   23 1
  48   22   69 1
  49   22   70 1
  50   23   71 1
  51   23   72 1
  52   24   73 1
  53   24   74 1
  54   24   75 1
  55   26   49 am
  56   26   28 1
  57   27   28 ar
  58   27   29 ar
  59   28   32 ar
  60   29   30 ar
  61   29   76 1
  62   30   31 ar
  63   30   44 1
  64   31   32 ar
  65   31   33 1
  66   32   77 1
  67   34   35 ar
  68   34   36 ar
  69   34   49 1
  70   35   41 1
  71   35   39 ar
  72   36   37 ar
  73   36   78 1
  74   37   38 ar
  75   37   79 1
  76   38   39 ar
  77   38   40 1
  78   39   80 1
  79   41   42 1
  80   42   43 1
  81   42   81 1
  82   42   82 1
  83   43   83 1
  84   43   84 1
  85   43   85 1
  86   44   45 3
  87   46   48 1
  88   47   48 1
  89   47   86 1
  90   47   87 1
  91   47   88 1
  92   48   89 1
  93   48   90 1
  94   49   50 2
  95   49   51 2

#	End of record

