#	Name: ASD02670015
#	Creating user name:	WinNT
#	Creation time:	15. 06. 2019 20:26

#	Modifying user name:	WinNT
#	Modification time:	15. 06. 2019 20:26

#	Program:	/corina/corina34_cracker 3.40 0067  02.08.2006

@<TRIPOS>MOLECULE
ASD02670015
  43   45    0    0    0
SMALL
NO_CHARGES


@<TRIPOS>ATOM
   1 N1             0.0377     1.3927     0.3170 N.am    
   2 N2             0.0379     0.0011     0.2816 N.am    
   3 C3             1.2332    -0.4867    -0.1008 C.2     
   4 O4             1.5360    -1.6545    -0.2248 O.2     
   5 C5             2.1240     0.7136    -0.3459 C.3     
   6 C6             1.2329     1.8996    -0.0400 C.2     
   7 O7             1.5355     3.0723    -0.1044 O.2     
   8 C8            -1.0701     2.1694     0.6739 C.ar    
   9 C9            -2.3078     1.9242     0.0938 C.ar    
  10 C10           -3.3993     2.6927     0.4482 C.ar    
  11 C11           -3.2606     3.7056     1.3793 C.ar    
  12 C12           -2.0294     3.9526     1.9584 C.ar    
  13 C13           -0.9355     3.1834     1.6132 C.ar    
  14 C14           -1.0680    -0.7932     0.6043 C.ar    
  15 C15           -1.4655    -1.8129    -0.2504 C.ar    
  16 C16           -2.5575    -2.5951     0.0710 C.ar    
  17 C17           -3.2550    -2.3634     1.2424 C.ar    
  18 C18           -2.8620    -1.3484     2.0954 C.ar    
  19 C19           -1.7668    -0.5670     1.7829 C.ar    
  20 C20            3.3280     0.6897     0.5978 C.3     
  21 C21            4.2737     1.8402     0.2473 C.3     
  22 C22            5.4778     1.8162     1.1910 C.3     
  23 C23            6.4235     2.9668     0.8404 C.3     
  24 H24            2.4521     0.7401    -1.3850 H       
  25 H25           -2.4166     1.1337    -0.6340 H       
  26 H26           -4.3621     2.5025    -0.0026 H       
  27 H27           -4.1156     4.3054     1.6545 H       
  28 H28           -1.9242     4.7449     2.6848 H       
  29 H29            0.0247     3.3734     2.0697 H       
  30 H30           -0.9216    -1.9939    -1.1657 H       
  31 H31           -2.8671    -3.3883    -0.5933 H       
  32 H32           -4.1088    -2.9761     1.4913 H       
  33 H33           -3.4092    -1.1695     3.0091 H       
  34 H34           -1.4572     0.2221     2.4520 H       
  35 H35            2.9856     0.8014     1.6266 H       
  36 H36            3.8545    -0.2588     0.4912 H       
  37 H37            4.6162     1.7284    -0.7815 H       
  38 H38            3.7473     2.7886     0.3539 H       
  39 H39            5.1353     1.9280     2.2198 H       
  40 H40            6.0042     0.8678     1.0843 H       
  41 H41            6.7659     2.8550    -0.1883 H       
  42 H42            5.8970     3.9152     0.9471 H       
  43 H43            7.2812     2.9497     1.5128 H       
@<TRIPOS>BOND
   1    1    2 1
   2    1    6 am
   3    1    8 1
   4    2    3 am
   5    2   14 1
   6    3    4 2
   7    3    5 1
   8    5    6 1
   9    5   20 1
  10    5   24 1
  11    6    7 2
  12    8    9 ar
  13    8   13 ar
  14    9   10 ar
  15    9   25 1
  16   10   11 ar
  17   10   26 1
  18   11   12 ar
  19   11   27 1
  20   12   13 ar
  21   12   28 1
  22   13   29 1
  23   14   15 ar
  24   14   19 ar
  25   15   16 ar
  26   15   30 1
  27   16   17 ar
  28   16   31 1
  29   17   18 ar
  30   17   32 1
  31   18   19 ar
  32   18   33 1
  33   19   34 1
  34   20   21 1
  35   20   35 1
  36   20   36 1
  37   21   22 1
  38   21   37 1
  39   21   38 1
  40   22   23 1
  41   22   39 1
  42   22   40 1
  43   23   41 1
  44   23   42 1
  45   23   43 1

#	End of record

