#	Name: ASD03240422
#	Creating user name:	WinNT
#	Creation time:	15. 06. 2019 20:34

#	Modifying user name:	WinNT
#	Modification time:	15. 06. 2019 20:34

#	Program:	/corina/corina34_cracker 3.40 0067  02.08.2006

@<TRIPOS>MOLECULE
ASD03240422
  53   56    0    0    0
SMALL
NO_CHARGES


@<TRIPOS>ATOM
   1 C1             0.6517     1.2751    -0.1779 C.ar    
   2 C2             0.9134    -0.0793    -0.2686 C.ar    
   3 C3             3.2412     1.7264     1.7790 C.ar    
   4 C4             2.2473     2.5143     1.2273 C.ar    
   5 C5             1.7887     2.2641    -0.1863 C.3     
   6 C6             3.6650     1.9513     3.0732 C.ar    
   7 C7             3.0897     2.9740     3.8240 C.ar    
   8 C8             2.0887     3.7643     3.2637 C.ar    
   9 C9             1.6724     3.5308     1.9685 C.ar    
  10 C10            3.5413     3.2202     5.2168 C.2     
  11 C11           -0.1290    -0.9869    -0.2609 C.ar    
  12 C12           -1.4345    -0.5396    -0.1625 C.ar    
  13 C13           -1.6958     0.8160    -0.0717 C.ar    
  14 C14           -0.6529     1.7229    -0.0852 C.ar    
  15 C15            3.0668     4.1822     6.0600 C.2     
  16 N16            3.7364     4.0699     7.2248 N.pl3   
  17 N17            4.6486     3.0145     7.1052 N.2     
  18 C18            4.5330     2.4992     5.9100 C.2     
  19 Cl19          -2.7444    -1.6789    -0.1534 Cl      
  20 O20            2.8733     1.7365    -0.9526 O.3     
  21 C21            1.3162     3.5792    -0.8094 C.3     
  22 N22            0.7599     3.3173    -2.1392 N.am    
  23 C23            0.2784     4.3347    -2.8805 C.2     
  24 C24           -0.2834     4.0702    -4.2235 C.ar    
  25 C25            0.4729     3.3978    -5.1786 C.ar    
  26 C26           -0.0562     3.1529    -6.4324 C.ar    
  27 C27           -1.3361     3.5728    -6.7465 C.ar    
  28 C28           -2.1023     4.2422    -5.8104 C.ar    
  29 C29           -1.5883     4.4922    -4.5408 C.ar    
  30 O30            0.3056     5.4693    -2.4459 O.2     
  31 C31           -2.4036     5.2071    -3.5360 C.2     
  32 O32           -1.9983     5.3246    -2.3971 O.2     
  33 O33           -3.5962     5.7284    -3.8835 O.3     
  34 H34            1.9325    -0.4283    -0.3458 H       
  35 H35            3.6834     0.9309     1.1975 H       
  36 H36            4.4409     1.3353     3.5031 H       
  37 H37            1.6395     4.5584     3.8415 H       
  38 H38            0.8967     4.1432     1.5330 H       
  39 H39            0.0755    -2.0449    -0.3322 H       
  40 H40           -2.7147     1.1657     0.0051 H       
  41 H41           -0.8567     2.7811    -0.0144 H       
  42 H42            2.2947     4.9031     5.8350 H       
  43 H43            3.6085     4.6248     8.0101 H       
  44 H44            5.1035     1.6697     5.5192 H       
  45 H45            3.6417     2.3216    -1.0012 H       
  46 H46            0.5496     4.0264    -0.1766 H       
  47 H47            2.1599     4.2636    -0.8969 H       
  48 H48            0.7381     2.4117    -2.4861 H       
  49 H49            1.4733     3.0676    -4.9407 H       
  50 H50            0.5337     2.6307    -7.1712 H       
  51 H51           -1.7394     3.3769    -7.7290 H       
  52 H52           -3.1009     4.5673    -6.0624 H       
  53 H53           -4.0931     6.1869    -3.1922 H       
@<TRIPOS>BOND
   1    1    2 ar
   2    1    5 1
   3    1   14 ar
   4    2   11 ar
   5    2   34 1
   6    3    4 ar
   7    3    6 ar
   8    3   35 1
   9    4    5 1
  10    4    9 ar
  11    5   21 1
  12    5   20 1
  13    6    7 ar
  14    6   36 1
  15    7    8 ar
  16    7   10 1
  17    8    9 ar
  18    8   37 1
  19    9   38 1
  20   10   15 2
  21   10   18 1
  22   11   12 ar
  23   11   39 1
  24   12   13 ar
  25   12   19 1
  26   13   14 ar
  27   13   40 1
  28   14   41 1
  29   15   16 1
  30   15   42 1
  31   16   17 1
  32   16   43 1
  33   17   18 2
  34   18   44 1
  35   20   45 1
  36   21   22 1
  37   21   46 1
  38   21   47 1
  39   22   23 am
  40   22   48 1
  41   23   24 1
  42   23   30 2
  43   24   25 ar
  44   24   29 ar
  45   25   26 ar
  46   25   49 1
  47   26   27 ar
  48   26   50 1
  49   27   28 ar
  50   27   51 1
  51   28   29 ar
  52   28   52 1
  53   29   31 1
  54   31   32 2
  55   31   33 1
  56   33   53 1

#	End of record

