#	Name: ASD01670059
#	Creating user name:	WinNT
#	Creation time:	15. 06. 2019 19:22

#	Modifying user name:	WinNT
#	Modification time:	15. 06. 2019 19:22

#	Program:	/corina/corina34_cracker 3.40 0067  02.08.2006

@<TRIPOS>MOLECULE
ASD01670059
  71   73    0    0    0
SMALL
NO_CHARGES


@<TRIPOS>ATOM
   1 C1            -0.1866     0.0202    -0.4230 C.ar    
   2 C2             0.3761    -0.1520     0.8289 C.ar    
   3 C3             0.5912    -0.1062    -1.5557 C.ar    
   4 C4             1.7213    -0.4514     0.9544 C.ar    
   5 C5             6.8000    -0.8680     3.7263 C.ar    
   6 C6             7.0226    -0.9934     5.0871 C.ar    
   7 C7             1.9483    -0.4085    -1.4362 C.ar    
   8 C8             5.1548    -2.6164     3.8313 C.ar    
   9 C9             2.5100    -0.5806    -0.1699 C.ar    
  10 C10            5.8747    -1.6706     3.0957 C.ar    
  11 C11            6.3184    -1.9280     5.8305 C.ar    
  12 C12            5.3798    -2.7426     5.2092 C.ar    
  13 C13            5.0436     2.3886     0.3888 C.2     
  14 C14            5.4152     1.3146     1.0405 C.2     
  15 C15            2.7876    -0.5459    -2.6456 C.2     
  16 C16            4.1631    -3.4769     3.1612 C.2     
  17 C17            6.9758    -2.1151    11.4541 C.2     
  18 C18            2.1997    -1.1528    -6.2229 C.3     
  19 C19            1.7178    -2.5690    -5.9016 C.3     
  20 C20            3.0537    -0.6300    -5.0662 C.3     
  21 C21            3.6377     0.7341    -5.4393 C.3     
  22 C22            5.1910    -4.0147     7.2064 C.3     
  23 C23            5.5733    -2.7247     7.9436 C.3     
  24 C24            3.9749    -0.9062    -0.0313 C.3     
  25 C25            5.6385    -1.5286     1.6141 C.3     
  26 C26            4.4108     0.5440     1.8580 C.3     
  27 C27            6.4105    -1.7773    10.0986 C.3     
  28 C28            6.1473    -3.0677     9.3198 C.3     
  29 N29            2.2221    -0.4938    -3.8678 N.am    
  30 N30            4.3580    -0.8460     1.3855 N.3     
  31 O31            4.5025    -4.5473     2.6969 O.2     
  32 O32            7.1502    -3.2694    11.7653 O.2     
  33 O33            3.9877    -0.7059    -2.5375 O.2     
  34 O34            2.8802    -3.0766     3.0635 O.3     
  35 O35            7.2855    -1.1335    12.3156 O.3     
  36 O36            4.6734    -3.6593     5.9197 O.3     
  37 O37            6.5603    -2.0387     7.1657 O.3     
  38 H38           -1.2380     0.2498    -0.5142 H       
  39 H39           -0.2370    -0.0520     1.7124 H       
  40 H40            0.1506     0.0281    -2.5325 H       
  41 H41            2.1547    -0.5840     1.9347 H       
  42 H42            7.3513    -0.1342     3.1571 H       
  43 H43            7.7498    -0.3594     5.5725 H       
  44 H44            5.7634     2.9408    -0.1970 H       
  45 H45            4.0174     2.7216     0.4374 H       
  46 H46            6.4414     0.9816     0.9920 H       
  47 H47            2.7954    -1.1701    -7.1355 H       
  48 H48            1.3388    -0.4992    -6.3633 H       
  49 H49            2.5787    -3.2226    -5.7612 H       
  50 H50            1.1220    -2.5517    -4.9890 H       
  51 H51            1.1094    -2.9415    -6.7257 H       
  52 H52            3.8649    -1.3305    -4.8678 H       
  53 H53            2.8266     1.4346    -5.6377 H       
  54 H54            4.2462     1.1066    -4.6152 H       
  55 H55            4.2565     0.6328    -6.3309 H       
  56 H56            6.0726    -4.6444     7.0860 H       
  57 H57            4.4303    -4.5508     7.7739 H       
  58 H58            4.6927    -2.0930     8.0597 H       
  59 H59            4.1622    -1.9087    -0.4161 H       
  60 H60            4.5628    -0.1839    -0.5977 H       
  61 H61            6.4457    -0.9446     1.1718 H       
  62 H62            5.6108    -2.5165     1.1543 H       
  63 H63            4.7069     0.5602     2.9069 H       
  64 H64            3.4274     1.0017     1.7509 H       
  65 H65            5.4760    -1.2296    10.2208 H       
  66 H66            7.1236    -1.1613     9.5507 H       
  67 H67            5.4341    -3.6836     9.8676 H       
  68 H68            7.0817    -3.6153     9.1975 H       
  69 H69            1.2644    -0.3661    -3.9540 H       
  70 H70            2.2665    -3.6747     2.6155 H       
  71 H71            7.6452    -1.3992    13.1730 H       
@<TRIPOS>BOND
   1    1    2 ar
   2    1    3 ar
   3    1   38 1
   4    2    4 ar
   5    2   39 1
   6    3    7 ar
   7    3   40 1
   8    4    9 ar
   9    4   41 1
  10    5    6 ar
  11    5   10 ar
  12    5   42 1
  13    6   11 ar
  14    6   43 1
  15    7    9 ar
  16    7   15 1
  17    8   10 ar
  18    8   12 ar
  19    8   16 1
  20    9   24 1
  21   10   25 1
  22   11   12 ar
  23   11   37 1
  24   12   36 1
  25   13   14 2
  26   13   44 1
  27   13   45 1
  28   14   26 1
  29   14   46 1
  30   15   29 am
  31   15   33 2
  32   16   31 2
  33   16   34 1
  34   17   27 1
  35   17   32 2
  36   17   35 1
  37   18   19 1
  38   18   20 1
  39   18   47 1
  40   18   48 1
  41   19   49 1
  42   19   50 1
  43   19   51 1
  44   20   21 1
  45   20   29 1
  46   20   52 1
  47   21   53 1
  48   21   54 1
  49   21   55 1
  50   22   23 1
  51   22   36 1
  52   22   56 1
  53   22   57 1
  54   23   28 1
  55   23   37 1
  56   23   58 1
  57   24   30 1
  58   24   59 1
  59   24   60 1
  60   25   30 1
  61   25   61 1
  62   25   62 1
  63   26   30 1
  64   26   63 1
  65   26   64 1
  66   27   28 1
  67   27   65 1
  68   27   66 1
  69   28   67 1
  70   28   68 1
  71   29   69 1
  72   34   70 1
  73   35   71 1

#	End of record

