#	Name: ASD09360007
#	Creating user name:	WinNT
#	Creation time:	15. 06. 2019 21:21

#	Modifying user name:	WinNT
#	Modification time:	15. 06. 2019 21:21

#	Program:	/corina/corina34_cracker 3.40 0067  02.08.2006

@<TRIPOS>MOLECULE
ASD09360007
  77   83    0    0    0
SMALL
NO_CHARGES


@<TRIPOS>ATOM
   1 N1            -0.1223     1.0469     0.1615 N.am    
   2 C2             0.0819    -0.2765     0.0309 C.2     
   3 C3            -1.2014    -0.9624    -0.2230 C.2     
   4 C4            -2.1984    -0.0463    -0.2472 C.2     
   5 C5            -1.5595     1.2995     0.0050 C.3     
   6 C6             0.8590     2.0092     0.4083 C.ar    
   7 C7            -2.1250     1.9146     1.2592 C.ar    
   8 C8            -3.6228    -0.3100    -0.4696 C.2     
   9 O9             1.1628    -0.8263     0.1095 O.2     
  10 O10           -1.3561    -2.2944    -0.4034 O.3     
  11 O11           -4.2589    -0.9464     0.3498 O.2     
  12 C12           -4.2862     0.1967    -1.6880 C.ar    
  13 C13           -3.0160     2.9646     1.1700 C.ar    
  14 C14           -3.5381     3.5325     2.3306 C.ar    
  15 C15           -3.1568     3.0362     3.5753 C.ar    
  16 C16           -2.2648     1.9856     3.6528 C.ar    
  17 C17           -1.7542     1.4220     2.4976 C.ar    
  18 C18            2.1890     1.6264     0.5408 C.ar    
  19 C19            3.1592     2.5749     0.7840 C.ar    
  20 C20            2.8061     3.9188     0.8971 C.ar    
  21 C21            1.4719     4.3005     0.7639 C.ar    
  22 C22            0.5054     3.3496     0.5155 C.ar    
  23 C23           -5.6531    -0.0230    -1.8833 C.ar    
  24 C24           -6.2701     0.4499    -3.0186 C.ar    
  25 C25           -5.5319     1.1484    -3.9753 C.ar    
  26 C26           -4.1673     1.3684    -3.7816 C.ar    
  27 C27           -3.5491     0.9015    -2.6444 C.ar    
  28 C28            3.8485     4.9411     1.1592 C.ar    
  29 C29            3.4973     6.2847     1.2725 C.ar    
  30 C30            4.4721     7.2321     1.5172 C.ar    
  31 C31            5.7952     6.8485     1.6496 C.ar    
  32 C32            6.1487     5.5158     1.5379 C.ar    
  33 C33            5.1821     4.5603     1.2989 C.ar    
  34 Br34           3.9982     9.0563     1.6708 Br      
  35 C35           -4.4962     4.6621     2.2410 C.ar    
  36 C36           -4.9328     5.3015     3.3988 C.ar    
  37 C37           -5.8257     6.3534     3.3092 C.ar    
  38 C38           -6.2849     6.7703     2.0706 C.ar    
  39 C39           -5.8537     6.1372     0.9191 C.ar    
  40 C40           -4.9578     5.0904     0.9977 C.ar    
  41 C41           -6.1976     1.6564    -5.1983 C.ar    
  42 C42           -5.4446     2.2570    -6.2067 C.ar    
  43 C43           -6.0691     2.7283    -7.3429 C.ar    
  44 C44           -7.4413     2.6061    -7.4829 C.ar    
  45 C45           -8.1937     2.0106    -6.4846 C.ar    
  46 C46           -7.5783     1.5304    -5.3471 C.ar    
  47 Cl47          -8.2211     3.2023    -8.9148 Cl      
  48 C48            6.8548     7.8865     1.9160 C.3     
  49 F49           -6.2510     6.9749     4.4308 F       
  50 H50           -1.7279     1.9597    -0.8458 H       
  51 H51           -0.5312    -2.7965    -0.3529 H       
  52 H52           -3.3079     3.3458     0.2026 H       
  53 H53           -3.5581     3.4729     4.4779 H       
  54 H54           -1.9683     1.6002     4.6171 H       
  55 H55           -1.0568     0.5999     2.5628 H       
  56 H56            2.4621     0.5852     0.4534 H       
  57 H57            4.1922     2.2770     0.8872 H       
  58 H58            1.1962     5.3411     0.8515 H       
  59 H59           -0.5283     3.6449     0.4122 H       
  60 H60           -6.2243    -0.5641    -1.1435 H       
  61 H61           -7.3259     0.2803    -3.1697 H       
  62 H62           -3.5971     1.9087    -4.5228 H       
  63 H63           -2.4933     1.0721    -2.4946 H       
  64 H64            2.4650     6.5847     1.1689 H       
  65 H65            7.1827     5.2220     1.6421 H       
  66 H66            5.4595     3.5202     1.2122 H       
  67 H67           -4.5750     4.9761     4.3645 H       
  68 H68           -6.9823     7.5923     2.0040 H       
  69 H69           -6.2153     6.4657    -0.0441 H       
  70 H70           -4.6220     4.5975     0.0973 H       
  71 H71           -4.3744     2.3534    -6.0981 H       
  72 H72           -5.4868     3.1936    -8.1245 H       
  73 H73           -9.2637     1.9178    -6.5987 H       
  74 H74           -8.1660     1.0657    -4.5692 H       
  75 H75            6.9741     8.0162     2.9917 H       
  76 H76            7.8001     7.5603     1.4823 H       
  77 H77            6.5566     8.8337     1.4667 H       
@<TRIPOS>BOND
   1    1    2 am
   2    1    6 1
   3    1    5 1
   4    2    3 1
   5    2    9 2
   6    3    4 2
   7    3   10 1
   8    4    5 1
   9    4    8 1
  10    5    7 1
  11    5   50 1
  12    6   18 ar
  13    6   22 ar
  14    7   13 ar
  15    7   17 ar
  16    8   11 2
  17    8   12 1
  18   10   51 1
  19   12   23 ar
  20   12   27 ar
  21   13   14 ar
  22   13   52 1
  23   14   15 ar
  24   14   35 1
  25   15   16 ar
  26   15   53 1
  27   16   17 ar
  28   16   54 1
  29   17   55 1
  30   18   19 ar
  31   18   56 1
  32   19   20 ar
  33   19   57 1
  34   20   21 ar
  35   20   28 1
  36   21   22 ar
  37   21   58 1
  38   22   59 1
  39   23   24 ar
  40   23   60 1
  41   24   25 ar
  42   24   61 1
  43   25   26 ar
  44   25   41 1
  45   26   27 ar
  46   26   62 1
  47   27   63 1
  48   28   29 ar
  49   28   33 ar
  50   29   30 ar
  51   29   64 1
  52   30   31 ar
  53   30   34 1
  54   31   32 ar
  55   31   48 1
  56   32   33 ar
  57   32   65 1
  58   33   66 1
  59   35   36 ar
  60   35   40 ar
  61   36   37 ar
  62   36   67 1
  63   37   38 ar
  64   37   49 1
  65   38   39 ar
  66   38   68 1
  67   39   40 ar
  68   39   69 1
  69   40   70 1
  70   41   42 ar
  71   41   46 ar
  72   42   43 ar
  73   42   71 1
  74   43   44 ar
  75   43   72 1
  76   44   45 ar
  77   44   47 1
  78   45   46 ar
  79   45   73 1
  80   46   74 1
  81   48   75 1
  82   48   76 1
  83   48   77 1

#	End of record

