#	Name: ASD05213043
#	Creating user name:	WinNT
#	Creation time:	15. 06. 2019 20:57

#	Modifying user name:	WinNT
#	Modification time:	15. 06. 2019 20:57

#	Program:	/corina/corina34_cracker 3.40 0067  02.08.2006

@<TRIPOS>MOLECULE
ASD05213043
  53   57    0    0    0
SMALL
NO_CHARGES


@<TRIPOS>ATOM
   1 C1            -0.0168     1.3878     0.0097 C.ar    
   2 C2             0.0021    -0.0041     0.0020 C.ar    
   3 C3            -1.1842    -0.7104     0.0095 C.ar    
   4 C4            -2.3963    -0.0423     0.0242 C.ar    
   5 C5            -2.4326     1.3380     0.0315 C.ar    
   6 C6            -1.2461     2.0652     0.0309 C.ar    
   7 C7             1.2544     2.1505     0.0016 C.ar    
   8 C8             2.2619     1.8409     0.9140 C.ar    
   9 C9             3.4431     2.5544     0.9019 C.ar    
  10 C10            3.6283     3.5752    -0.0130 C.ar    
  11 C11            2.6321     3.8869    -0.9208 C.ar    
  12 C12            1.4491     3.1762    -0.9221 C.ar    
  13 C13            4.9201     4.3512    -0.0205 C.3     
  14 N14            5.8753     3.7007    -0.9208 N.pl3   
  15 C15            5.9213     4.0580    -2.2530 C.2     
  16 C16            6.7818     2.6709    -0.4069 C.3     
  17 C17            6.1183     1.2981    -0.5338 C.3     
  18 C18            7.0650     0.2226     0.0029 C.3     
  19 N19            5.1695     4.9493    -2.8023 N.2     
  20 C20            5.3339     5.1882    -4.1189 C.ar    
  21 C21            6.3331     4.3978    -4.6941 C.ar    
  22 S22            7.0189     3.3674    -3.4401 S.3     
  23 C23            4.6446     6.1027    -4.9430 C.ar    
  24 C24            4.9539     6.2073    -6.2756 C.ar    
  25 C25            5.9474     5.4166    -6.8339 C.ar    
  26 C26            6.6335     4.5169    -6.0486 C.ar    
  27 C27           -1.2804     3.5479     0.0392 C.2     
  28 N28           -0.2238     4.3736     0.0392 N.2     
  29 N29           -0.6806     5.5798     0.0471 N.2     
  30 N30           -1.9672     5.5397     0.0519 N.pl3   
  31 N31           -2.3558     4.3110     0.0422 N.2     
  32 H32            0.9445    -0.5313    -0.0101 H       
  33 H33           -1.1662    -1.7902     0.0035 H       
  34 H34           -3.3188    -0.6038     0.0296 H       
  35 H35           -3.3817     1.8532     0.0422 H       
  36 H36            2.1181     1.0446     1.6292 H       
  37 H37            4.2243     2.3154     1.6083 H       
  38 H38            2.7822     4.6849    -1.6328 H       
  39 H39            0.6720     3.4204    -1.6313 H       
  40 H40            4.7311     5.3681    -0.3646 H       
  41 H41            5.3327     4.3797     0.9880 H       
  42 H42            7.7075     2.6816    -0.9823 H       
  43 H43            7.0031     2.8719     0.6413 H       
  44 H44            5.1926     1.2873     0.0416 H       
  45 H45            5.8969     1.0970    -1.5820 H       
  46 H46            7.9906     0.2333    -0.5725 H       
  47 H47            7.2863     0.4236     1.0511 H       
  48 H48            6.5923    -0.7554    -0.0875 H       
  49 H49            3.8681     6.7243    -4.5222 H       
  50 H50            4.4187     6.9113    -6.8955 H       
  51 H51            6.1827     5.5061    -7.8842 H       
  52 H52            7.4071     3.9022    -6.4846 H       
  53 H53           -2.5526     6.3132     0.0583 H       
@<TRIPOS>BOND
   1    1    2 ar
   2    1    7 1
   3    1    6 ar
   4    2    3 ar
   5    2   32 1
   6    3    4 ar
   7    3   33 1
   8    4    5 ar
   9    4   34 1
  10    5    6 ar
  11    5   35 1
  12    6   27 1
  13    7    8 ar
  14    7   12 ar
  15    8    9 ar
  16    8   36 1
  17    9   10 ar
  18    9   37 1
  19   10   11 ar
  20   10   13 1
  21   11   12 ar
  22   11   38 1
  23   12   39 1
  24   13   14 1
  25   13   40 1
  26   13   41 1
  27   14   15 1
  28   14   16 1
  29   15   19 2
  30   15   22 1
  31   16   17 1
  32   16   42 1
  33   16   43 1
  34   17   18 1
  35   17   44 1
  36   17   45 1
  37   18   46 1
  38   18   47 1
  39   18   48 1
  40   19   20 1
  41   20   21 ar
  42   20   23 ar
  43   21   22 1
  44   21   26 ar
  45   23   24 ar
  46   23   49 1
  47   24   25 ar
  48   24   50 1
  49   25   26 ar
  50   25   51 1
  51   26   52 1
  52   27   28 1
  53   27   31 2
  54   28   29 2
  55   29   30 1
  56   30   31 1
  57   30   53 1

#	End of record

