#	Name: ASD05430581
#	Creating user name:	WinNT
#	Creation time:	15. 06. 2019 21:00

#	Modifying user name:	WinNT
#	Modification time:	15. 06. 2019 21:00

#	Program:	/corina/corina34_cracker 3.40 0067  02.08.2006

@<TRIPOS>MOLECULE
ASD05430581
  30   31    0    0    0
SMALL
NO_CHARGES


@<TRIPOS>ATOM
   1 N1            -0.0153     1.2781     0.0091 N.ar    
   2 N2             0.0021    -0.0041     0.0020 N.ar    
   3 C3             1.0835     2.0092     0.0025 C.ar    
   4 C4             2.3186     1.3798    -0.0127 C.ar    
   5 C5             2.3426    -0.0296    -0.0205 C.ar    
   6 C6             1.1203    -0.7025    -0.0124 C.ar    
   7 C7             0.9964     3.5136     0.0109 C.3     
   8 C8             1.0787    -2.2089    -0.0196 C.3     
   9 C9             0.3554    -2.7051     1.2340 C.3     
  10 C10            0.3320    -2.6925    -1.2644 C.3     
  11 C11            0.2353     3.9874    -1.2289 C.3     
  12 C12            0.2586     3.9747     1.2694 C.3     
  13 O13            3.6040     1.7776    -0.0228 O.3     
  14 C14            4.3813     0.6824    -0.0361 C.2     
  15 N15            3.6479    -0.3922    -0.0349 N.2     
  16 H16            2.0013     3.9358     0.0037 H       
  17 H17            2.0959    -2.6004    -0.0311 H       
  18 H18           -0.6618    -2.3137     1.2455 H       
  19 H19            0.3254    -3.7947     1.2288 H       
  20 H20            0.8874    -2.3606     2.1208 H       
  21 H21            0.8473    -2.3390    -2.1574 H       
  22 H22            0.3020    -3.7821    -1.2696 H       
  23 H23           -0.6852    -2.3011    -1.2529 H       
  24 H24           -0.7696     3.5652    -1.2216 H       
  25 H25            0.1723     5.0755    -1.2228 H       
  26 H26            0.7609     3.6589    -2.1255 H       
  27 H27            0.8009     3.6372     2.1527 H       
  28 H28            0.1956     5.0629     1.2755 H       
  29 H29           -0.7463     3.5526     1.2767 H       
  30 H30            5.4612     0.6923    -0.0467 H       
@<TRIPOS>BOND
   1    1    2 ar
   2    1    3 ar
   3    2    6 ar
   4    3    4 ar
   5    3    7 1
   6    4    5 ar
   7    4   13 1
   8    5    6 ar
   9    5   15 1
  10    6    8 1
  11    7   11 1
  12    7   12 1
  13    7   16 1
  14    8    9 1
  15    8   10 1
  16    8   17 1
  17    9   18 1
  18    9   19 1
  19    9   20 1
  20   10   21 1
  21   10   22 1
  22   10   23 1
  23   11   24 1
  24   11   25 1
  25   11   26 1
  26   12   27 1
  27   12   28 1
  28   12   29 1
  29   13   14 1
  30   14   15 2
  31   14   30 1

#	End of record

