#	Name: ASD01915845
#	Creating user name:	WinNT
#	Creation time:	15. 06. 2019 20:06

#	Modifying user name:	WinNT
#	Modification time:	15. 06. 2019 20:06

#	Program:	/corina/corina34_cracker 3.40 0067  02.08.2006

@<TRIPOS>MOLECULE
ASD01915845
  44   47    0    0    0
SMALL
NO_CHARGES


@<TRIPOS>ATOM
   1 C1            -0.0042     1.4683     0.2336 C.2     
   2 N2             0.0659     0.1186    -0.0300 N.pl3   
   3 C3            -1.1434    -0.6644    -0.3114 C.3     
   4 C4            -2.3281    -0.0484     0.4310 C.3     
   5 N5            -2.4044     1.3988     0.2637 N.am    
   6 C6            -1.2934     2.1741     0.2849 C.2     
   7 C7             1.2764     1.9056     0.4235 C.2     
   8 C8             2.0758     0.7646     0.2720 C.2     
   9 N9             1.2861    -0.2510     0.0106 N.2     
  10 C10            3.5774     0.7127     0.3877 C.3     
  11 O11            4.0781     2.0189     0.6795 O.3     
  12 C12            5.4240     2.1474     0.8167 C.ar    
  13 O13           -1.3587     3.3874     0.3431 O.2     
  14 C14            5.9784     3.3871     1.1003 C.ar    
  15 C15            6.2455     1.0379     0.6791 C.ar    
  16 C16            7.6134     1.1711     0.8189 C.ar    
  17 C17            8.1639     2.4089     1.0959 C.ar    
  18 C18            7.3468     3.5151     1.2393 C.ar    
  19 C19           -3.6534     1.9998     0.0766 C.ar    
  20 C20           -3.9742     2.5996    -1.1390 C.ar    
  21 C21           -5.2236     3.1812    -1.2762 C.ar    
  22 C22           -6.1047     3.1480    -0.2110 C.ar    
  23 N23           -5.7703     2.5726     0.9273 N.ar    
  24 C24           -4.5941     2.0024     1.0981 C.ar    
  25 C25           -7.4659     3.7788    -0.3528 C.3     
  26 O26           -7.5991     4.3350    -1.6624 O.3     
  27 H27           -1.3413    -0.6556    -1.3833 H       
  28 H28           -0.9981    -1.6913     0.0238 H       
  29 H29           -3.2491    -0.4953     0.0567 H       
  30 H30           -2.2349    -0.2758     1.4929 H       
  31 H31            1.6018     2.9119     0.6423 H       
  32 H32            3.8567     0.0291     1.1895 H       
  33 H33            4.0025     0.3625    -0.5529 H       
  34 H34            5.3406     4.2515     1.2120 H       
  35 H35            5.8159     0.0709     0.4630 H       
  36 H36            8.2533     0.3077     0.7122 H       
  37 H37            9.2335     2.5109     1.2049 H       
  38 H38            7.7793     4.4808     1.4553 H       
  39 H39           -3.2660     2.6110    -1.9543 H       
  40 H40           -5.5064     3.6556    -2.2043 H       
  41 H41           -4.3564     1.5406     2.0450 H       
  42 H42           -8.2350     3.0217    -0.1997 H       
  43 H43           -7.5799     4.5680     0.3904 H       
  44 H44           -8.4530     4.7587    -1.8248 H       
@<TRIPOS>BOND
   1    1    2 1
   2    1    7 2
   3    1    6 1
   4    2    3 1
   5    2    9 1
   6    3    4 1
   7    3   27 1
   8    3   28 1
   9    4    5 1
  10    4   29 1
  11    4   30 1
  12    5    6 am
  13    5   19 1
  14    6   13 2
  15    7    8 1
  16    7   31 1
  17    8    9 2
  18    8   10 1
  19   10   11 1
  20   10   32 1
  21   10   33 1
  22   11   12 1
  23   12   14 ar
  24   12   15 ar
  25   14   18 ar
  26   14   34 1
  27   15   16 ar
  28   15   35 1
  29   16   17 ar
  30   16   36 1
  31   17   18 ar
  32   17   37 1
  33   18   38 1
  34   19   20 ar
  35   19   24 ar
  36   20   21 ar
  37   20   39 1
  38   21   22 ar
  39   21   40 1
  40   22   23 ar
  41   22   25 1
  42   23   24 ar
  43   24   41 1
  44   25   26 1
  45   25   42 1
  46   25   43 1
  47   26   44 1

#	End of record

