#	Name: ASD01230086
#	Creating user name:	WinNT
#	Creation time:	15. 06. 2019 19:11

#	Modifying user name:	WinNT
#	Modification time:	15. 06. 2019 19:11

#	Program:	/corina/corina34_cracker 3.40 0067  02.08.2006

@<TRIPOS>MOLECULE
ASD01230086
  43   46    0    0    0
SMALL
NO_CHARGES


@<TRIPOS>ATOM
   1 C1            -0.0168     1.3907     0.0097 C.ar    
   2 C2             0.0021    -0.0041     0.0020 C.ar    
   3 C3            -1.2686    -0.7650     0.0096 C.2     
   4 N4            -2.4245    -0.1223     0.0236 N.2     
   5 C5            -3.5768    -0.7917     0.0306 C.2     
   6 N6            -3.5932    -2.1628     0.0234 N.pl3   
   7 C7            -2.4154    -2.8579     0.0089 C.2     
   8 C8            -1.2465    -2.1772    -0.0041 C.2     
   9 C9             1.2226    -0.6793    -0.0133 C.ar    
  10 C10            2.4029     0.0352    -0.0207 C.ar    
  11 C11            2.3776     1.4185    -0.0126 C.ar    
  12 C12            1.1702     2.0939     0.0021 C.ar    
  13 C13           -4.9190    -0.3715     0.0452 C.2     
  14 C14           -5.7124    -1.5287     0.0463 C.2     
  15 N15           -4.9293    -2.5787     0.0334 N.2     
  16 C16           -5.3872     0.9817     0.0572 C.1     
  17 C17           -5.7711     2.0911     0.0670 C.1     
  18 C18           -6.2394     3.4444     0.0790 C.ar    
  19 C19           -7.6078     3.7205     0.0930 C.ar    
  20 C20           -5.3293     4.5132     0.0827 C.ar    
  21 C21           -5.8288     5.7993     0.0943 C.ar    
  22 C22           -7.2078     5.9942     0.1019 C.ar    
  23 N23           -8.0413     4.9649     0.1036 N.ar    
  24 N24           -7.7169     7.2878     0.1136 N.pl3   
  25 C25            3.6705     2.1927    -0.0203 C.3     
  26 F26            4.0582     2.4398    -1.3415 F       
  27 F27            3.4900     3.4085     0.6479 F       
  28 F28            4.6635     1.4485     0.6257 F       
  29 C29           -2.4199    -4.3649     0.0009 C.3     
  30 F30           -1.1024    -4.8351    -0.0137 F       
  31 F31           -3.0703    -4.8354     1.1467 F       
  32 F32           -3.0912    -4.8232    -1.1377 F       
  33 H33           -0.9587     1.9190     0.0170 H       
  34 H34           -0.3060    -2.7081    -0.0160 H       
  35 H35            1.2436    -1.7590    -0.0189 H       
  36 H36            3.3485    -0.4864    -0.0325 H       
  37 H37            1.1569     3.1738     0.0077 H       
  38 H38           -6.7921    -1.5503     0.0566 H       
  39 H39           -8.3178     2.9067     0.0948 H       
  40 H40           -4.2644     4.3332     0.0770 H       
  41 H41           -5.1579     6.6456     0.0978 H       
  42 H42           -7.1127     8.0467     0.1164 H       
  43 H43           -8.6761     7.4315     0.1190 H       
@<TRIPOS>BOND
   1    1    2 ar
   2    1   12 ar
   3    1   33 1
   4    2    3 1
   5    2    9 ar
   6    3    4 2
   7    3    8 1
   8    4    5 1
   9    5    6 1
  10    5   13 2
  11    6    7 1
  12    6   15 1
  13    7   29 1
  14    7    8 2
  15    8   34 1
  16    9   10 ar
  17    9   35 1
  18   10   11 ar
  19   10   36 1
  20   11   25 1
  21   11   12 ar
  22   12   37 1
  23   13   14 1
  24   13   16 1
  25   14   15 2
  26   14   38 1
  27   16   17 3
  28   17   18 1
  29   18   19 ar
  30   18   20 ar
  31   19   23 ar
  32   19   39 1
  33   20   21 ar
  34   20   40 1
  35   21   22 ar
  36   21   41 1
  37   22   23 ar
  38   22   24 1
  39   24   42 1
  40   24   43 1
  41   25   26 1
  42   25   27 1
  43   25   28 1
  44   29   30 1
  45   29   31 1
  46   29   32 1

#	End of record

