#	Name: ASD01915132
#	Creating user name:	WinNT
#	Creation time:	15. 06. 2019 20:04

#	Modifying user name:	WinNT
#	Modification time:	15. 06. 2019 20:04

#	Program:	/corina/corina34_cracker 3.40 0067  02.08.2006

@<TRIPOS>MOLECULE
ASD01915132
  40   43    0    0    0
SMALL
NO_CHARGES


@<TRIPOS>ATOM
   1 C1            -0.0169     1.3924     0.0097 C.ar    
   2 C2             0.0021    -0.0041     0.0020 C.ar    
   3 N3            -1.1430    -0.6903     0.0096 N.ar    
   4 C4            -2.3136    -0.0965     0.0244 C.ar    
   5 C5            -2.4136     1.2863     0.0324 C.ar    
   6 C6            -1.2657     2.0479     0.0305 C.ar    
   7 C7             1.3286     1.9586    -0.0001 C.2     
   8 C8             2.3058     1.0549    -0.0143 C.2     
   9 S9             1.6661    -0.5766    -0.0169 S.3     
  10 C10            1.5853     3.4181     0.0048 C.ar    
  11 C11            1.2153     4.1902     1.1054 C.ar    
  12 C12            1.4568     5.5488     1.1042 C.ar    
  13 C13            2.0647     6.1451     0.0139 C.ar    
  14 C14            2.4340     5.3843    -1.0809 C.ar    
  15 C15            2.2029     4.0239    -1.0888 C.ar    
  16 S16            4.0232     1.4487    -0.0295 S.o2    
  17 O17            4.6881     0.3230    -0.5861 O.2     
  18 O18            4.1296     2.7592    -0.5686 O.2     
  19 C19            4.5483     1.5570     1.6490 C.ar    
  20 C20            5.0218     0.4325     2.2988 C.ar    
  21 C21            4.4919     2.7678     2.3138 C.ar    
  22 C22            4.9041     2.8535     3.6303 C.ar    
  23 C23            5.3728     1.7271     4.2828 C.ar    
  24 C24            5.4334     0.5167     3.6155 C.ar    
  25 Cl25           5.8907     1.8340     5.9363 Cl      
  26 C26            2.3251     7.6294     0.0187 C.3     
  27 H27           -3.2129    -0.6945     0.0301 H       
  28 H28           -3.3830     1.7623     0.0438 H       
  29 H29           -1.3209     3.1265     0.0370 H       
  30 H30            0.7403     3.7258     1.9570 H       
  31 H31            1.1703     6.1478     1.9559 H       
  32 H32            2.9082     5.8553    -1.9292 H       
  33 H33            2.4919     3.4309    -1.9439 H       
  34 H34            5.0697    -0.5122     1.7775 H       
  35 H35            4.1261     3.6470     1.8043 H       
  36 H36            4.8607     3.7996     4.1493 H       
  37 H37            5.7988    -0.3630     4.1245 H       
  38 H38            3.3094     7.8242     0.4444 H       
  39 H39            2.2898     8.0077    -1.0029 H       
  40 H40            1.5645     8.1298     0.6180 H       
@<TRIPOS>BOND
   1    1    2 ar
   2    1    7 1
   3    1    6 ar
   4    2    3 ar
   5    2    9 1
   6    3    4 ar
   7    4    5 ar
   8    4   27 1
   9    5    6 ar
  10    5   28 1
  11    6   29 1
  12    7    8 2
  13    7   10 1
  14    8    9 1
  15    8   16 1
  16   10   11 ar
  17   10   15 ar
  18   11   12 ar
  19   11   30 1
  20   12   13 ar
  21   12   31 1
  22   13   14 ar
  23   13   26 1
  24   14   15 ar
  25   14   32 1
  26   15   33 1
  27   16   17 2
  28   16   18 2
  29   16   19 1
  30   19   20 ar
  31   19   21 ar
  32   20   24 ar
  33   20   34 1
  34   21   22 ar
  35   21   35 1
  36   22   23 ar
  37   22   36 1
  38   23   24 ar
  39   23   25 1
  40   24   37 1
  41   26   38 1
  42   26   39 1
  43   26   40 1

#	End of record

