#	Name: ASD03240645
#	Creating user name:	WinNT
#	Creation time:	15. 06. 2019 20:35

#	Modifying user name:	WinNT
#	Modification time:	15. 06. 2019 20:35

#	Program:	/corina/corina34_cracker 3.40 0067  02.08.2006

@<TRIPOS>MOLECULE
ASD03240645
  63   70    0    0    0
SMALL
NO_CHARGES


@<TRIPOS>ATOM
   1 C1             0.0466     1.1671    -0.2557 C.ar    
   2 C2             0.1305    -0.2077    -0.3362 C.ar    
   3 N3             1.2999    -0.8188    -0.3298 N.ar    
   4 C4             2.4408    -0.1478    -0.2460 C.ar    
   5 C5             2.4312     1.2440    -0.1763 C.ar    
   6 C6             1.2146     1.9139    -0.1744 C.ar    
   7 N7             3.6405    -0.8528    -0.2079 N.pl3   
   8 C8             4.4677    -0.7869     0.9101 C.ar    
   9 C9             5.0335     0.4300     1.3052 C.ar    
  10 C10            4.7811     1.6575     0.5190 C.2     
  11 N11            3.6219     1.9825    -0.1257 N.pl3   
  12 C12            4.7334    -1.9360     1.6428 C.ar    
  13 C13            5.5435    -1.8721     2.7603 C.ar    
  14 C14            6.0946    -0.6665     3.1590 C.ar    
  15 C15            5.8441     0.4841     2.4388 C.ar    
  16 N16            5.6596     2.6218     0.3306 N.2     
  17 C17            5.1189     3.5850    -0.4311 C.2     
  18 C18            3.8233     3.2041    -0.7377 C.2     
  19 C19            2.8512     3.9545    -1.5558 C.ar    
  20 C20            2.6830     5.3277    -1.3616 C.ar    
  21 C21            2.0994     3.2960    -2.5319 C.ar    
  22 C22            1.1924     4.0028    -3.2940 C.ar    
  23 C23            1.0256     5.3614    -3.0945 C.ar    
  24 C24            1.7715     6.0235    -2.1316 C.ar    
  25 C25            5.7879     4.8332    -0.8659 C.ar    
  26 C26            0.0331     6.1263    -3.9317 C.3     
  27 C27            6.6934     5.4721    -0.0193 C.ar    
  28 N28           -1.2059     6.4366    -3.2061 N.3     
  29 C29            0.6427     7.3381    -4.6561 C.3     
  30 C30           -0.2234     6.9509    -5.8664 C.3     
  31 C31           -0.2021     5.5128    -5.3221 C.3     
  32 C32            7.3162     6.6374    -0.4283 C.ar    
  33 C33            7.0379     7.1711    -1.6856 C.ar    
  34 C34            6.1369     6.5347    -2.5262 C.ar    
  35 C35            5.5178     5.3688    -2.1250 C.ar    
  36 O36            8.2249     7.4428     0.1959 O.3     
  37 C37            8.8068     8.2464    -0.8474 C.3     
  38 O38            7.7727     8.3106    -1.8472 O.3     
  39 F39            1.6025     7.3505    -1.9423 F       
  40 H40           -0.9159     1.6569    -0.2604 H       
  41 H41           -0.7748    -0.7926    -0.4051 H       
  42 H42            1.1777     2.9914    -0.1119 H       
  43 H43            3.9027    -1.3957    -0.9678 H       
  44 H44            4.3068    -2.8805     1.3388 H       
  45 H45            5.7479    -2.7687     3.3267 H       
  46 H46            6.7226    -0.6259     4.0367 H       
  47 H47            6.2751     1.4236     2.7519 H       
  48 H48            3.2637     5.8437    -0.6114 H       
  49 H49            2.2281     2.2354    -2.6897 H       
  50 H50            0.6113     3.4941    -4.0489 H       
  51 H51            6.9079     5.0576     0.9547 H       
  52 H52           -1.5845     5.6106    -2.7673 H       
  53 H53           -1.0546     7.1688    -2.5287 H       
  54 H54            0.3694     8.2952    -4.2119 H       
  55 H55            1.7134     7.2449    -4.8378 H       
  56 H56           -1.2137     7.4063    -5.8581 H       
  57 H57            0.2873     7.0634    -6.8227 H       
  58 H58            0.6376     4.9207    -5.6858 H       
  59 H59           -1.1575     4.9964    -5.4155 H       
  60 H60            5.9231     6.9503    -3.4998 H       
  61 H61            4.8170     4.8758    -2.7825 H       
  62 H62            9.0429     9.2436    -0.4761 H       
  63 H63            9.6985     7.7652    -1.2492 H       
@<TRIPOS>BOND
   1    1    2 ar
   2    1    6 ar
   3    1   40 1
   4    2    3 ar
   5    2   41 1
   6    3    4 ar
   7    4    5 ar
   8    4    7 1
   9    5    6 ar
  10    5   11 1
  11    6   42 1
  12    7    8 1
  13    7   43 1
  14    8    9 ar
  15    8   12 ar
  16    9   10 1
  17    9   15 ar
  18   10   11 1
  19   10   16 2
  20   11   18 1
  21   12   13 ar
  22   12   44 1
  23   13   14 ar
  24   13   45 1
  25   14   15 ar
  26   14   46 1
  27   15   47 1
  28   16   17 1
  29   17   18 2
  30   17   25 1
  31   18   19 1
  32   19   20 ar
  33   19   21 ar
  34   20   24 ar
  35   20   48 1
  36   21   22 ar
  37   21   49 1
  38   22   23 ar
  39   22   50 1
  40   23   24 ar
  41   23   26 1
  42   24   39 1
  43   25   27 ar
  44   25   35 ar
  45   26   29 1
  46   26   28 1
  47   26   31 1
  48   27   32 ar
  49   27   51 1
  50   28   52 1
  51   28   53 1
  52   29   30 1
  53   29   54 1
  54   29   55 1
  55   30   31 1
  56   30   56 1
  57   30   57 1
  58   31   58 1
  59   31   59 1
  60   32   33 ar
  61   32   36 1
  62   33   34 ar
  63   33   38 1
  64   34   35 ar
  65   34   60 1
  66   35   61 1
  67   36   37 1
  68   37   38 1
  69   37   62 1
  70   37   63 1

#	End of record

