#	Name: ASD05430454
#	Creating user name:	WinNT
#	Creation time:	15. 06. 2019 21:00

#	Modifying user name:	WinNT
#	Modification time:	15. 06. 2019 21:00

#	Program:	/corina/corina34_cracker 3.40 0067  02.08.2006

@<TRIPOS>MOLECULE
ASD05430454
  60   64    0    0    0
SMALL
NO_CHARGES


@<TRIPOS>ATOM
   1 C1            -0.0041     0.5148     0.4273 C.ar    
   2 C2             0.0856    -0.6161    -0.3840 C.ar    
   3 C3            -1.0009    -1.0099    -1.1549 C.ar    
   4 C4            -2.1720    -0.2852    -1.1219 C.ar    
   5 C5            -2.2694     0.8499    -0.3102 C.ar    
   6 C6            -1.1775     1.2433     0.4699 C.ar    
   7 C7            -4.7049     0.9981    -0.3962 C.2     
   8 C8            -3.5197     1.6254    -0.2735 C.2     
   9 O9             1.0612     0.8973     1.1805 O.3     
  10 C10            1.3941    -2.7139    -0.2711 C.2     
  11 N11            1.2743    -1.3565    -0.4218 N.pl3   
  12 C12            2.7050    -3.0038    -0.3762 C.2     
  13 N13            3.3717    -1.8588    -0.5854 N.2     
  14 C14            2.5259    -0.8651    -0.6148 C.2     
  15 C15            3.3171    -4.3772    -0.2762 C.3     
  16 C16           -7.0350    -0.0858     0.5653 C.2     
  17 N17           -7.0904     1.1672     0.0942 N.am    
  18 N18           -5.9773    -0.8982     0.3933 N.am    
  19 C19           -5.9798     1.7369    -0.5201 C.2     
  20 C20           -4.8218    -0.5161    -0.4233 C.3     
  21 C21            0.8990     2.0651     1.9879 C.3     
  22 O22           -7.9926    -0.5107     1.1819 O.2     
  23 C23           -8.2979     1.9850     0.2517 C.3     
  24 C24           -8.5231     2.7787    -1.0359 C.3     
  25 C25           -7.2823     3.5924    -1.3871 C.3     
  26 N26           -6.0516     2.8546    -1.1587 N.2     
  27 C27           -9.4838     1.0913     0.5088 C.ar    
  28 C28          -10.2283     1.2465     1.6632 C.ar    
  29 C29           -9.8298     0.1206    -0.4128 C.ar    
  30 C30          -10.9176    -0.6989    -0.1786 C.ar    
  31 C31          -11.6608    -0.5478     0.9798 C.ar    
  32 C32          -11.3162     0.4279     1.8998 C.ar    
  33 F33          -12.7245    -1.3484     1.2098 F       
  34 C34           -5.9789    -2.2078     1.0499 C.3     
  35 H35           -0.9271    -1.8861    -1.7820 H       
  36 H36           -3.0148    -0.5933    -1.7228 H       
  37 H37           -1.2486     2.1188     1.0982 H       
  38 H38           -3.4866     2.6976    -0.1482 H       
  39 H39            0.5918    -3.4155    -0.0968 H       
  40 H40            2.7788     0.1737    -0.7675 H       
  41 H41            3.3563    -4.8305    -1.2667 H       
  42 H42            4.3267    -4.2965     0.1266 H       
  43 H43            2.7111    -4.9979     0.3838 H       
  44 H44           -4.9672    -0.8558    -1.4487 H       
  45 H45           -3.9165    -0.9625    -0.0118 H       
  46 H46            0.6697     2.9188     1.3501 H       
  47 H47            0.0827     1.9088     2.6931 H       
  48 H48            1.8209     2.2586     2.5363 H       
  49 H49           -8.1674     2.6728     1.0872 H       
  50 H50           -8.7420     2.0880    -1.8503 H       
  51 H51           -9.3691     3.4523    -0.8996 H       
  52 H52           -7.3349     3.8809    -2.4369 H       
  53 H53           -7.2671     4.4944    -0.7754 H       
  54 H54           -9.9593     2.0077     2.3807 H       
  55 H55           -9.2499     0.0030    -1.3163 H       
  56 H56          -11.1881    -1.4567    -0.8990 H       
  57 H57          -11.8950     0.5464     2.8039 H       
  58 H58           -6.9023    -2.3293     1.6161 H       
  59 H59           -5.9089    -2.9922     0.2963 H       
  60 H60           -5.1265    -2.2764     1.7259 H       
@<TRIPOS>BOND
   1    1    2 ar
   2    1    9 1
   3    1    6 ar
   4    2    3 ar
   5    2   11 1
   6    3    4 ar
   7    3   35 1
   8    4    5 ar
   9    4   36 1
  10    5    6 ar
  11    5    8 1
  12    6   37 1
  13    7    8 2
  14    7   19 1
  15    7   20 1
  16    8   38 1
  17    9   21 1
  18   10   11 1
  19   10   12 2
  20   10   39 1
  21   11   14 1
  22   12   13 1
  23   12   15 1
  24   13   14 2
  25   14   40 1
  26   15   41 1
  27   15   42 1
  28   15   43 1
  29   16   17 am
  30   16   18 am
  31   16   22 2
  32   17   23 1
  33   17   19 1
  34   18   34 1
  35   18   20 1
  36   19   26 2
  37   20   44 1
  38   20   45 1
  39   21   46 1
  40   21   47 1
  41   21   48 1
  42   23   24 1
  43   23   27 1
  44   23   49 1
  45   24   25 1
  46   24   50 1
  47   24   51 1
  48   25   26 1
  49   25   52 1
  50   25   53 1
  51   27   28 ar
  52   27   29 ar
  53   28   32 ar
  54   28   54 1
  55   29   30 ar
  56   29   55 1
  57   30   31 ar
  58   30   56 1
  59   31   32 ar
  60   31   33 1
  61   32   57 1
  62   34   58 1
  63   34   59 1
  64   34   60 1

#	End of record

