#	Name: ASD01813657
#	Creating user name:	WinNT
#	Creation time:	15. 06. 2019 19:30

#	Modifying user name:	WinNT
#	Modification time:	15. 06. 2019 19:30

#	Program:	/corina/corina34_cracker 3.40 0067  02.08.2006

@<TRIPOS>MOLECULE
ASD01813657
  56   60    0    0    0
SMALL
NO_CHARGES


@<TRIPOS>ATOM
   1 C1            -0.0178     1.4608     0.0101 C.3     
   2 N2             0.0021    -0.0041     0.0020 N.pl3   
   3 C3             0.0078    -0.7904    -1.0958 C.2     
   4 C4             0.0271    -2.0777    -0.6865 C.2     
   5 C5             0.0336    -2.0828     0.7219 C.2     
   6 N6             0.0245    -0.8320     1.1316 N.2     
   7 C7             0.0539    -3.2860     1.5906 C.ar    
   8 C8             0.0744    -4.5581     1.0227 C.ar    
   9 C9             0.0937    -5.6736     1.8352 C.ar    
  10 C10            0.0922    -5.5304     3.2110 C.ar    
  11 C11            0.1133    -6.7521     4.0930 C.3     
  12 C12            1.5410    -7.1355     4.3861 C.ar    
  13 C13            2.1861    -8.0812     3.6179 C.ar    
  14 C14            3.5108    -8.4125     3.9176 C.ar    
  15 N15            4.1474    -7.8364     4.9190 N.ar    
  16 C16            3.5652    -6.9113     5.6958 C.ar    
  17 C17            4.1198    -6.1863     6.8270 C.2     
  18 C18            3.2952    -5.3296     7.3975 C.2     
  19 S19            1.7325    -5.3168     6.6032 S.3     
  20 C20            2.2389    -6.5338     5.4397 C.ar    
  21 C21            4.2107    -9.4270     3.0976 C.2     
  22 O22            3.6336    -9.9643     2.1728 O.2     
  23 N23            5.4878    -9.7548     3.3767 N.am    
  24 C24            6.1804   -10.7589     2.5652 C.3     
  25 H25            5.4736   -11.5291     2.2566 H       
  26 C26            6.7825   -10.0896     1.3258 C.3     
  27 C27            7.5701   -11.1301     0.5254 C.3     
  28 O28            8.5809   -11.7035     1.3570 O.3     
  29 C29            8.0739   -12.3840     2.5068 C.3     
  30 C30            7.3051   -11.3954     3.3876 C.3     
  31 H31            7.9839   -10.6184     3.7391 H       
  32 O32            6.7463   -12.0853     4.5073 O.3     
  33 C33            0.0718    -4.2699     3.7801 C.ar    
  34 C34            0.0582    -3.1475     2.9770 C.ar    
  35 H35            1.0048     1.8381     0.0023 H       
  36 H36           -0.5450     1.8219    -0.8730 H       
  37 H37           -0.5280     1.8123     0.9069 H       
  38 H38           -0.0018    -0.4501    -2.1207 H       
  39 H39            0.0360    -2.9481    -1.3257 H       
  40 H40            0.0749    -4.6711    -0.0514 H       
  41 H41            0.1096    -6.6602     1.3960 H       
  42 H42           -0.4036    -6.5345     5.0276 H       
  43 H43           -0.3871    -7.5761     3.5844 H       
  44 H44            1.6748    -8.5600     2.7959 H       
  45 H45            5.1311    -6.3380     7.1745 H       
  46 H46            3.5503    -4.7139     8.2473 H       
  47 H47            5.9484    -9.3260     4.1148 H       
  48 H48            5.9828    -9.6828     0.7068 H       
  49 H49            7.4504    -9.2854     1.6344 H       
  50 H50            6.8938   -11.9133     0.1828 H       
  51 H51            8.0363   -10.6501    -0.3350 H       
  52 H52            7.4042   -13.1835     2.1901 H       
  53 H53            8.9031   -12.8072     3.0737 H       
  54 H54            7.4031   -12.5134     5.0733 H       
  55 H55            0.0704    -4.1637     4.8549 H       
  56 H56            0.0468    -2.1636     3.4223 H       
@<TRIPOS>BOND
   1    1    2 1
   2    1   35 1
   3    1   36 1
   4    1   37 1
   5    2    6 1
   6    2    3 1
   7    3    4 2
   8    3   38 1
   9    4    5 1
  10    4   39 1
  11    5    6 2
  12    5    7 1
  13    7   34 ar
  14    7    8 ar
  15    8    9 ar
  16    8   40 1
  17    9   10 ar
  18    9   41 1
  19   10   11 1
  20   10   33 ar
  21   11   12 1
  22   11   42 1
  23   11   43 1
  24   12   20 ar
  25   12   13 ar
  26   13   14 ar
  27   13   44 1
  28   14   15 ar
  29   14   21 1
  30   15   16 ar
  31   16   20 ar
  32   16   17 1
  33   17   18 2
  34   17   45 1
  35   18   19 1
  36   18   46 1
  37   19   20 1
  38   21   22 2
  39   21   23 am
  40   23   24 1
  41   23   47 1
  42   24   25 1
  43   24   30 1
  44   24   26 1
  45   26   27 1
  46   26   48 1
  47   26   49 1
  48   27   28 1
  49   27   50 1
  50   27   51 1
  51   28   29 1
  52   29   30 1
  53   29   52 1
  54   29   53 1
  55   30   31 1
  56   30   32 1
  57   32   54 1
  58   33   34 ar
  59   33   55 1
  60   34   56 1

#	End of record

