#	Name: ASD01120165
#	Creating user name:	WinNT
#	Creation time:	15. 06. 2019 18:59

#	Modifying user name:	WinNT
#	Modification time:	15. 06. 2019 18:59

#	Program:	/corina/corina34_cracker 3.40 0067  02.08.2006

@<TRIPOS>MOLECULE
ASD01120165
  36   38    0    0    0
SMALL
NO_CHARGES


@<TRIPOS>ATOM
   1 C1            -0.0583     1.4177     0.6798 C.ar    
   2 C2            -0.0450     0.0189     0.7695 C.ar    
   3 C3            -1.2118    -0.7044     0.6567 C.ar    
   4 C4            -2.4227    -0.0325     0.4503 C.ar    
   5 C5            -2.4283     1.3816     0.3608 C.ar    
   6 C6            -1.2293     2.0936     0.4844 C.ar    
   7 N7            -3.5868    -0.6906     0.3334 N.ar    
   8 C8            -4.7056    -0.0337     0.1401 C.ar    
   9 N9            -4.7592     1.2857     0.0500 N.ar    
  10 C10           -3.6674     2.0325     0.1515 C.ar    
  11 C11           -6.0864     3.4972     0.6116 C.ar    
  12 C12           -4.9832     4.0394    -0.0342 C.ar    
  13 C13           -5.1173     5.2101    -0.7696 C.ar    
  14 C14           -6.3479     5.8325    -0.8570 C.ar    
  15 C15           -7.4473     5.2893    -0.2109 C.ar    
  16 C16           -7.3149     4.1227     0.5223 C.ar    
  17 N17           -3.7383     3.4077     0.0561 N.pl3   
  18 Cl18          -6.5169     7.2957    -1.7758 Cl      
  19 O19            1.1314    -0.6304     0.9693 O.3     
  20 O20            1.1065     2.1100     0.7943 O.3     
  21 C21            1.0797    -2.0561     1.0518 C.3     
  22 C22            1.0279     3.5333     0.6942 C.3     
  23 F23           -8.6496     5.8995    -0.2965 F       
  24 H24           -1.1926    -1.7819     0.7266 H       
  25 H25           -1.2289     3.1715     0.4172 H       
  26 H26           -5.6241    -0.5946     0.0500 H       
  27 H27           -5.9850     2.5846     1.1803 H       
  28 H28           -4.2604     5.6336    -1.2724 H       
  29 H29           -8.1729     3.7009     1.0246 H       
  30 H30           -2.9248     3.9361     0.0516 H       
  31 H31            0.4386    -2.3489     1.8833 H       
  32 H32            0.6766    -2.4594     0.1228 H       
  33 H33            2.0843    -2.4475     1.2121 H       
  34 H34            0.3802     3.9177     1.4822 H       
  35 H35            2.0247     3.9608     0.8025 H       
  36 H36            0.6188     3.8071    -0.2783 H       
@<TRIPOS>BOND
   1    1    2 ar
   2    1   20 1
   3    1    6 ar
   4    2    3 ar
   5    2   19 1
   6    3    4 ar
   7    3   24 1
   8    4    5 ar
   9    4    7 ar
  10    5    6 ar
  11    5   10 ar
  12    6   25 1
  13    7    8 ar
  14    8    9 ar
  15    8   26 1
  16    9   10 ar
  17   10   17 1
  18   11   12 ar
  19   11   16 ar
  20   11   27 1
  21   12   13 ar
  22   12   17 1
  23   13   14 ar
  24   13   28 1
  25   14   15 ar
  26   14   18 1
  27   15   16 ar
  28   15   23 1
  29   16   29 1
  30   17   30 1
  31   19   21 1
  32   20   22 1
  33   21   31 1
  34   21   32 1
  35   21   33 1
  36   22   34 1
  37   22   35 1
  38   22   36 1

#	End of record

