#	Name: ASD01140046
#	Creating user name:	WinNT
#	Creation time:	15. 06. 2019 18:59

#	Modifying user name:	WinNT
#	Modification time:	15. 06. 2019 18:59

#	Program:	/corina/corina34_cracker 3.40 0067  02.08.2006

@<TRIPOS>MOLECULE
ASD01140046
  39   40    0    0    0
SMALL
NO_CHARGES


@<TRIPOS>ATOM
   1 C1            -2.3625     0.9358    -0.3653 C.2     
   2 C2            -4.0344     6.8698    -0.0405 C.3     
   3 C3            -3.8730     5.4079     0.3651 C.2     
   4 C4            -4.1108     4.3162    -0.6608 C.3     
   5 C5            -4.0347     4.9922    -2.0349 C.3     
   6 C6            -5.0690     6.0951    -2.1871 C.3     
   7 C7            -5.2827     6.9202    -0.9240 C.3     
   8 C8            -4.2698     7.6039     1.2926 C.3     
   9 C9            -3.5548     6.6578     2.2891 C.3     
  10 C10           -3.5981     5.2985     1.6241 C.2     
  11 H11           -3.1492     7.2456    -0.5537 H       
  12 C12           -3.0450     3.2569    -0.5456 C.2     
  13 C13           -3.3538     3.9921     2.3345 C.3     
  14 C14           -3.3877     1.9881    -0.3363 C.2     
  15 C15           -4.8272     1.6306    -0.0695 C.3     
  16 C16           -6.4757     6.3588    -0.1479 C.3     
  17 O17           -2.7097    -0.3494    -0.1533 O.3     
  18 O18           -1.2024     1.2235    -0.5855 O.2     
  19 H19           -5.0965     3.8742    -0.5153 H       
  20 H20           -3.0402     5.4189    -2.1651 H       
  21 H21           -4.2004     4.2421    -2.8083 H       
  22 H22           -4.7505     6.7620    -2.9882 H       
  23 H23           -6.0192     5.6435    -2.4721 H       
  24 H24           -5.4886     7.9546    -1.1992 H       
  25 H25           -3.8039     8.5893     1.2848 H       
  26 H26           -5.3339     7.6773     1.5168 H       
  27 H27           -2.5227     6.9744     2.4399 H       
  28 H28           -4.0884     6.6332     3.2393 H       
  29 H29           -2.0031     3.5275    -0.6329 H       
  30 H30           -3.1443     4.1843     3.3867 H       
  31 H31           -4.2387     3.3613     2.2495 H       
  32 H32           -2.5018     3.4857     1.8810 H       
  33 H33           -5.3519     1.5051    -1.0166 H       
  34 H34           -4.8716     0.7002     0.4965 H       
  35 H35           -5.2992     2.4280     0.5045 H       
  36 H36           -6.2294     5.3662     0.2291 H       
  37 H37           -6.7076     7.0180     0.6887 H       
  38 H38           -7.3402     6.2924    -0.8085 H       
  39 H39           -2.0012    -1.0067    -0.1862 H       
@<TRIPOS>BOND
   1    1   17 1
   2    1   18 2
   3    1   14 1
   4    2    3 1
   5    2    8 1
   6    2   11 1
   7    2    7 1
   8    3    4 1
   9    3   10 2
  10    4    5 1
  11    4   12 1
  12    4   19 1
  13    5    6 1
  14    5   20 1
  15    5   21 1
  16    6    7 1
  17    6   22 1
  18    6   23 1
  19    7   16 1
  20    7   24 1
  21    8    9 1
  22    8   25 1
  23    8   26 1
  24    9   10 1
  25    9   27 1
  26    9   28 1
  27   10   13 1
  28   12   14 2
  29   12   29 1
  30   13   30 1
  31   13   31 1
  32   13   32 1
  33   14   15 1
  34   15   33 1
  35   15   34 1
  36   15   35 1
  37   16   36 1
  38   16   37 1
  39   16   38 1
  40   17   39 1

#	End of record

