#	Name: ASD06170023
#	Creating user name:	WinNT
#	Creation time:	15. 06. 2019 21:05

#	Modifying user name:	WinNT
#	Modification time:	15. 06. 2019 21:05

#	Program:	/corina/corina34_cracker 3.40 0067  02.08.2006

@<TRIPOS>MOLECULE
ASD06170023
  69   74    0    0    0
SMALL
NO_CHARGES


@<TRIPOS>ATOM
   1 N1             0.9856     0.5861    -0.2418 N.pl3   
   2 N2             0.8403    -0.5391    -1.0584 N.am    
   3 C3             2.0626    -0.9742    -1.4246 C.2     
   4 C4             3.0415    -0.0713    -0.8031 C.2     
   5 C5             2.3086     0.8716    -0.0852 C.2     
   6 C6             4.5012    -0.1478    -0.9159 C.2     
   7 O7             5.1954     0.7298    -0.4372 O.2     
   8 N8             5.0745    -1.1900    -1.5497 N.am    
   9 C9            -0.3755    -1.1193    -1.4342 C.ar    
  10 C10           -0.6033    -1.4601    -2.7612 C.ar    
  11 C11           -1.8048    -2.0333    -3.1289 C.ar    
  12 C12           -2.7806    -2.2678    -2.1775 C.ar    
  13 C13           -2.5569    -1.9297    -0.8554 C.ar    
  14 C14           -1.3554    -1.3613    -0.4801 C.ar    
  15 O15            2.3085    -1.9322    -2.1339 O.2     
  16 O16            4.2708     3.3030     1.5095 O.3     
  17 N17            4.1267     2.3526     0.7763 N.2     
  18 C18            2.8688     1.9876     0.7076 C.2     
  19 C19            2.1514     2.8842     1.5502 C.2     
  20 C20            3.1073     3.7073     2.0382 C.2     
  21 C21            2.9038     4.8562     2.9919 C.3     
  22 C22           -0.1175     1.3467     0.3506 C.3     
  23 C23            6.4619    -1.3327    -1.5431 C.ar    
  24 C24            7.2663    -0.2220    -1.3138 C.ar    
  25 C25            8.6409    -0.3749    -1.3089 C.ar    
  26 C26            9.1682    -1.6440    -1.5353 C.ar    
  27 C27            8.3050    -2.7051    -1.7566 C.ar    
  28 N28            6.9980    -2.5247    -1.7496 N.ar    
  29 O29           10.5137    -1.8393    -1.5396 O.3     
  30 N30           12.4415    -1.9707     2.1043 N.ar    
  31 C31           11.1323    -1.8956     2.0525 C.ar    
  32 C32           10.4484    -1.8493     0.8443 C.ar    
  33 C33           11.1544    -1.8826    -0.3454 C.ar    
  34 C34           12.5635    -1.9635    -0.2776 C.ar    
  35 C35           13.3471    -2.0009    -1.4406 C.ar    
  36 C36           14.7060    -2.0786    -1.3374 C.ar    
  37 C37           15.3262    -2.1219    -0.0806 C.ar    
  38 C38           14.5875    -2.0870     1.0668 C.ar    
  39 C39           13.1870    -2.0066     0.9933 C.ar    
  40 O40           16.6807    -2.2001    -0.0038 O.3     
  41 C41           17.2550    -2.2411     1.3041 C.3     
  42 O42           15.4657    -2.1149    -2.4646 O.3     
  43 C43           14.7746    -2.0681    -3.7145 C.3     
  44 H44            4.5222    -1.8407    -2.0105 H       
  45 H45            0.1581    -1.2766    -3.5048 H       
  46 H46           -1.9825    -2.2985    -4.1606 H       
  47 H47           -3.7195    -2.7155    -2.4677 H       
  48 H48           -3.3212    -2.1137    -0.1149 H       
  49 H49           -1.1798    -1.1013     0.5533 H       
  50 H50            1.0906     2.9029     1.7521 H       
  51 H51            3.8631     5.3299     3.2001 H       
  52 H52            2.2283     5.5850     2.5439 H       
  53 H53            2.4726     4.4846     3.9215 H       
  54 H54           -1.0666     0.9551    -0.0154 H       
  55 H55           -0.0808     1.2543     1.4361 H       
  56 H56           -0.0259     2.3964     0.0719 H       
  57 H57            6.8234     0.7479    -1.1421 H       
  58 H58            9.2903     0.4702    -1.1339 H       
  59 H59            8.7066    -3.6920    -1.9329 H       
  60 H60           10.5711    -1.8691     2.9748 H       
  61 H61            9.3702    -1.7884     0.8335 H       
  62 H62           12.8776    -1.9687    -2.4127 H       
  63 H63           15.0783    -2.1214     2.0282 H       
  64 H64           16.8805    -3.1143     1.8382 H       
  65 H65           18.3402    -2.3028     1.2226 H       
  66 H66           16.9824    -1.3373     1.8490 H       
  67 H67           14.0997    -2.9208    -3.7886 H       
  68 H68           14.2005    -1.1437    -3.7779 H       
  69 H69           15.4965    -2.1041    -4.5304 H       
@<TRIPOS>BOND
   1    1    2 1
   2    1    5 1
   3    1   22 1
   4    2    3 am
   5    2    9 1
   6    3    4 1
   7    3   15 2
   8    4    5 2
   9    4    6 1
  10    5   18 1
  11    6    7 2
  12    6    8 am
  13    8   23 1
  14    8   44 1
  15    9   10 ar
  16    9   14 ar
  17   10   11 ar
  18   10   45 1
  19   11   12 ar
  20   11   46 1
  21   12   13 ar
  22   12   47 1
  23   13   14 ar
  24   13   48 1
  25   14   49 1
  26   16   17 1
  27   16   20 1
  28   17   18 2
  29   18   19 1
  30   19   20 2
  31   19   50 1
  32   20   21 1
  33   21   51 1
  34   21   52 1
  35   21   53 1
  36   22   54 1
  37   22   55 1
  38   22   56 1
  39   23   24 ar
  40   23   28 ar
  41   24   25 ar
  42   24   57 1
  43   25   26 ar
  44   25   58 1
  45   26   27 ar
  46   26   29 1
  47   27   28 ar
  48   27   59 1
  49   29   33 1
  50   30   31 ar
  51   30   39 ar
  52   31   32 ar
  53   31   60 1
  54   32   33 ar
  55   32   61 1
  56   33   34 ar
  57   34   35 ar
  58   34   39 ar
  59   35   36 ar
  60   35   62 1
  61   36   37 ar
  62   36   42 1
  63   37   38 ar
  64   37   40 1
  65   38   39 ar
  66   38   63 1
  67   40   41 1
  68   41   64 1
  69   41   65 1
  70   41   66 1
  71   42   43 1
  72   43   67 1
  73   43   68 1
  74   43   69 1

#	End of record

