#	Name: ASD04880959
#	Creating user name:	WinNT
#	Creation time:	15. 06. 2019 20:53

#	Modifying user name:	WinNT
#	Modification time:	15. 06. 2019 20:53

#	Program:	/corina/corina34_cracker 3.40 0067  02.08.2006

@<TRIPOS>MOLECULE
ASD04880959
  77   81    0    0    0
SMALL
NO_CHARGES


@<TRIPOS>ATOM
   1 C1             0.0604     1.4457     0.0250 C.3     
   2 N2             0.0693    -0.0233     0.0193 N.3     
   3 C3             0.7553    -0.5503     1.2073 C.3     
   4 C4             0.8128    -2.0775     1.1243 C.3     
   5 N5            -0.5526    -2.6121     1.0276 N.3     
   6 C6            -1.2386    -2.0850    -0.1603 C.3     
   7 C7            -1.2962    -0.5578    -0.0773 C.3     
   8 C8            -0.5442    -4.0045     1.0223 C.ar    
   9 C9             0.1327    -4.6908     0.0206 C.ar    
  10 C10            0.1433    -6.0679     0.0112 C.ar    
  11 C11           -0.5271    -6.7799     1.0097 C.ar    
  12 C12           -1.2081    -6.0925     2.0183 C.ar    
  13 C13           -1.2115    -4.7103     2.0273 C.ar    
  14 N14           -1.8885    -4.0175     3.0393 N.am    
  15 C15           -0.5165    -8.2552     0.9988 C.2     
  16 N16            0.1401    -8.9171     0.0256 N.am    
  17 O17           -1.1000    -8.8738     1.8679 O.2     
  18 C18            2.1557     0.0032     1.2662 C.ar    
  19 C19            2.6967     0.3872     2.4789 C.ar    
  20 C20            3.9813     0.8950     2.5329 C.ar    
  21 C21            4.7250     1.0182     1.3742 C.ar    
  22 C22            4.1844     0.6333     0.1616 C.ar    
  23 C23            2.9014     0.1215     0.1082 C.ar    
  24 C24            0.1507   -10.3821     0.0148 C.3     
  25 C25            0.9598   -10.8774    -1.1856 C.3     
  26 C26            0.9709   -12.4073    -1.1968 C.3     
  27 N27            1.7456   -12.8816    -2.3462 N.am    
  28 C28            3.1887   -13.1474    -2.3193 C.3     
  29 C29            3.6273   -13.1918    -3.7999 C.3     
  30 C30            2.3119   -13.5937    -4.5064 C.3     
  31 C31            1.2250   -13.1347    -3.5594 C.2     
  32 O32            0.0548   -13.0107    -3.8527 O.2     
  33 C33           -3.0246    -4.5236     3.5587 C.2     
  34 C34           -3.6662    -3.8641     4.7004 C.2     
  35 O35           -3.5180    -5.5280     3.0799 O.2     
  36 O36           -3.2266    -2.7506     5.3224 O.3     
  37 C37           -4.0640    -2.4388     6.3202 C.2     
  38 C38           -5.0592    -3.3522     6.3540 C.2     
  39 C39           -4.8166    -4.2661     5.3166 C.2     
  40 C40           -3.9197    -1.2632     7.2519 C.3     
  41 H41            1.0858     1.8152     0.0292 H       
  42 H42           -0.4532     1.8093    -0.8650 H       
  43 H43           -0.4580     1.8025     0.9149 H       
  44 H44            0.2093    -0.2552     2.1034 H       
  45 H45            1.3821    -2.3726     0.2429 H       
  46 H46            1.2955    -2.4723     2.0183 H       
  47 H47           -0.6926    -2.3802    -1.0564 H       
  48 H48           -2.2515    -2.4853    -0.2029 H       
  49 H49           -1.8655    -0.2628     0.8041 H       
  50 H50           -1.7788    -0.1630    -0.9713 H       
  51 H51            0.6512    -4.1427    -0.7522 H       
  52 H52            0.6698    -6.5981    -0.7686 H       
  53 H53           -1.7273    -6.6400     2.7909 H       
  54 H54           -1.5396    -3.1736     3.3663 H       
  55 H55            0.6056    -8.4236    -0.6677 H       
  56 H56            2.1156     0.2910     3.3842 H       
  57 H57            4.4037     1.1957     3.4803 H       
  58 H58            5.7284     1.4156     1.4163 H       
  59 H59            4.7654     0.7299    -0.7436 H       
  60 H60            2.4803    -0.1827    -0.8386 H       
  61 H61            0.6048   -10.7489     0.9353 H       
  62 H62           -0.8718   -10.7523    -0.0586 H       
  63 H63            0.5058   -10.5105    -2.1061 H       
  64 H64            1.9824   -10.5072    -1.1122 H       
  65 H65            1.4250   -12.7742    -0.2763 H       
  66 H66           -0.0517   -12.7775    -1.2702 H       
  67 H67            3.7101   -12.3463    -1.7954 H       
  68 H68            3.3870   -14.1052    -1.8383 H       
  69 H69            3.9669   -12.2120    -4.1357 H       
  70 H70            4.3995   -13.9451    -3.9556 H       
  71 H71            2.2242   -13.0859    -5.4669 H       
  72 H72            2.2651   -14.6745    -4.6396 H       
  73 H73           -5.8877    -3.3730     7.0466 H       
  74 H74           -5.4215    -5.1225     5.0573 H       
  75 H75           -3.0244    -0.6995     6.9897 H       
  76 H76           -4.7942    -0.6187     7.1618 H       
  77 H77           -3.8363    -1.6210     8.2781 H       
@<TRIPOS>BOND
   1    1    2 1
   2    1   41 1
   3    1   42 1
   4    1   43 1
   5    2    3 1
   6    2    7 1
   7    3    4 1
   8    3   18 1
   9    3   44 1
  10    4    5 1
  11    4   45 1
  12    4   46 1
  13    5    6 1
  14    5    8 1
  15    6    7 1
  16    6   47 1
  17    6   48 1
  18    7   49 1
  19    7   50 1
  20    8    9 ar
  21    8   13 ar
  22    9   10 ar
  23    9   51 1
  24   10   11 ar
  25   10   52 1
  26   11   12 ar
  27   11   15 1
  28   12   13 ar
  29   12   53 1
  30   13   14 1
  31   14   33 am
  32   14   54 1
  33   15   16 am
  34   15   17 2
  35   16   24 1
  36   16   55 1
  37   18   19 ar
  38   18   23 ar
  39   19   20 ar
  40   19   56 1
  41   20   21 ar
  42   20   57 1
  43   21   22 ar
  44   21   58 1
  45   22   23 ar
  46   22   59 1
  47   23   60 1
  48   24   25 1
  49   24   61 1
  50   24   62 1
  51   25   26 1
  52   25   63 1
  53   25   64 1
  54   26   27 1
  55   26   65 1
  56   26   66 1
  57   27   28 1
  58   27   31 am
  59   28   29 1
  60   28   67 1
  61   28   68 1
  62   29   30 1
  63   29   69 1
  64   29   70 1
  65   30   31 1
  66   30   71 1
  67   30   72 1
  68   31   32 2
  69   33   34 1
  70   33   35 2
  71   34   36 1
  72   34   39 2
  73   36   37 1
  74   37   38 2
  75   37   40 1
  76   38   39 1
  77   38   73 1
  78   39   74 1
  79   40   75 1
  80   40   76 1
  81   40   77 1

#	End of record

