#	Name: ASD01150677
#	Creating user name:	WinNT
#	Creation time:	15. 06. 2019 19:04

#	Modifying user name:	WinNT
#	Modification time:	15. 06. 2019 19:04

#	Program:	/corina/corina34_cracker 3.40 0067  02.08.2006

@<TRIPOS>MOLECULE
ASD01150677
  39   42    0    0    0
SMALL
NO_CHARGES


@<TRIPOS>ATOM
   1 C1             0.1012     1.5659    -0.8769 C.2     
   2 C2            -0.8960     1.0670     0.1369 C.3     
   3 C3             3.6429     3.4661     0.4099 C.ar    
   4 C4             2.5439     4.2761     0.1326 C.ar    
   5 C5             1.3361     3.6597    -0.3027 C.ar    
   6 C6             1.3141     2.2537    -0.4331 C.ar    
   7 C7             2.4751     1.5285    -0.1292 C.ar    
   8 N8             3.5638     2.1356     0.2683 N.ar    
   9 C9             2.8194     5.6926     0.3418 C.2     
  10 C10            4.0616     5.9458     0.7574 C.2     
  11 S11            4.9953     4.4685     0.9189 S.3     
  12 C12            4.6007     7.3358     1.0487 C.3     
  13 C13            3.6737     8.3691     0.4041 C.3     
  14 C14            2.2284     8.0591     0.8057 C.3     
  15 C15            1.7771     6.7775     0.1033 C.3     
  16 C16            0.1454     4.4646    -0.6073 C.2     
  17 C17            0.0065     5.2990    -1.6790 C.2     
  18 C18           -1.2162     5.9318    -1.7208 C.2     
  19 C19           -2.0470     5.6259    -0.7197 C.2     
  20 S20           -1.3317     4.5016     0.3458 S.3     
  21 C21            2.4690     0.0275    -0.2629 C.3     
  22 O22           -0.0993     1.3927    -2.0613 O.2     
  23 H23           -0.5164     1.2526     1.1417 H       
  24 H24           -1.8426     1.5907     0.0037 H       
  25 H25           -1.0502    -0.0031    -0.0013 H       
  26 H26            4.6337     7.4965     2.1263 H       
  27 H27            5.6030     7.4338     0.6318 H       
  28 H28            3.9427     9.3670     0.7505 H       
  29 H29            3.7698     8.3193    -0.6805 H       
  30 H30            2.1716     7.9220     1.8855 H       
  31 H31            1.5823     8.8849     0.5077 H       
  32 H32            1.6804     6.9621    -0.9666 H       
  33 H33            0.8174     6.4574     0.5088 H       
  34 H34            0.7783     5.4485    -2.4194 H       
  35 H35           -1.4838     6.6246    -2.5049 H       
  36 H36           -3.0406     6.0326    -0.6032 H       
  37 H37            2.6819    -0.2461    -1.2963 H       
  38 H38            3.2307    -0.3986     0.3900 H       
  39 H39            1.4899    -0.3585     0.0208 H       
@<TRIPOS>BOND
   1    1    2 1
   2    1    6 1
   3    1   22 2
   4    2   23 1
   5    2   24 1
   6    2   25 1
   7    3    4 ar
   8    3    8 ar
   9    3   11 1
  10    4    5 ar
  11    4    9 1
  12    5    6 ar
  13    5   16 1
  14    6    7 ar
  15    7    8 ar
  16    7   21 1
  17    9   10 2
  18    9   15 1
  19   10   11 1
  20   10   12 1
  21   12   13 1
  22   12   26 1
  23   12   27 1
  24   13   14 1
  25   13   28 1
  26   13   29 1
  27   14   15 1
  28   14   30 1
  29   14   31 1
  30   15   32 1
  31   15   33 1
  32   16   17 2
  33   16   20 1
  34   17   18 1
  35   17   34 1
  36   18   19 2
  37   18   35 1
  38   19   20 1
  39   19   36 1
  40   21   37 1
  41   21   38 1
  42   21   39 1

#	End of record

