#	Name: ASD01812618
#	Creating user name:	WinNT
#	Creation time:	15. 06. 2019 19:28

#	Modifying user name:	WinNT
#	Modification time:	15. 06. 2019 19:28

#	Program:	/corina/corina34_cracker 3.40 0067  02.08.2006

@<TRIPOS>MOLECULE
ASD01812618
  49   53    0    0    0
SMALL
NO_CHARGES


@<TRIPOS>ATOM
   1 O1            -0.0163     1.3522     0.0095 O.3     
   2 C2             0.0021    -0.0041     0.0020 C.ar    
   3 C3             1.2105    -0.6847    -0.0132 C.ar    
   4 C4             1.2312    -2.0655    -0.0208 C.ar    
   5 C5             0.0448    -2.7828    -0.0128 C.ar    
   6 C6            -1.1603    -2.1223     0.0027 C.ar    
   7 C7            -1.2004    -0.7252     0.0155 C.ar    
   8 C8            -2.5947    -2.5891     0.0137 C.3     
   9 N9            -3.4200    -1.3759     0.0279 N.am    
  10 C10           -2.6104    -0.3028     0.0372 C.2     
  11 C11           -4.8845    -1.3401     0.0414 C.3     
  12 C12           -5.3737    -1.3358     1.4668 C.2     
  13 O13           -2.9891     0.8526     0.0485 O.2     
  14 C14            1.1734     2.0057     0.0016 C.ar    
  15 C15            1.8048     2.3329     1.2089 C.ar    
  16 C16            1.1984     1.9798     2.4572 C.1     
  17 C17            1.7735     2.3480    -1.2031 C.ar    
  18 C18            2.9856     3.0133    -1.2084 C.ar    
  19 C19            3.6092     3.3421    -0.0160 C.ar    
  20 C20            3.0296     3.0054     1.1881 C.ar    
  21 N21            0.7174     1.6997     3.4475 N.1     
  22 F22            1.1726     2.0305    -2.3707 F       
  23 C23           -5.6019    -0.2401     2.2153 C.2     
  24 C24           -6.0477    -0.6875     3.4768 C.2     
  25 C25           -6.0666    -2.0448     3.4265 C.2     
  26 O26           -5.6605    -2.4250     2.2004 O.3     
  27 C27           -6.4688    -2.9489     4.5270 C.2     
  28 C28           -6.4904    -4.3144     4.4838 C.2     
  29 N29           -6.9145    -4.7532     5.6869 N.pl3   
  30 N30           -7.1626    -3.6389     6.4973 N.2     
  31 C31           -6.8938    -2.5586     5.8136 C.2     
  32 C32           -7.0859    -6.1546     6.0780 C.3     
  33 H33            2.1387    -0.1327    -0.0195 H       
  34 H34            2.1758    -2.5889    -0.0333 H       
  35 H35            0.0677    -3.8625    -0.0192 H       
  36 H36           -2.8050    -3.1749    -0.8812 H       
  37 H37           -2.7882    -3.1845     0.9060 H       
  38 H38           -5.2306    -0.4387    -0.4642 H       
  39 H39           -5.2741    -2.2181    -0.4738 H       
  40 H40            3.4489     3.2777    -2.1475 H       
  41 H41            4.5560     3.8614    -0.0301 H       
  42 H42            3.5218     3.2608     2.1149 H       
  43 H43           -5.4686     0.7867     1.9082 H       
  44 H44           -6.3206    -0.0701     4.3198 H       
  45 H45           -6.2175    -4.9305     3.6398 H       
  46 H46           -6.9838    -1.5433     6.1707 H       
  47 H47           -6.1566    -6.5280     6.5081 H       
  48 H48           -7.8843    -6.2307     6.8161 H       
  49 H49           -7.3443    -6.7476     5.2007 H       
@<TRIPOS>BOND
   1    1    2 1
   2    1   14 1
   3    2    3 ar
   4    2    7 ar
   5    3    4 ar
   6    3   33 1
   7    4    5 ar
   8    4   34 1
   9    5    6 ar
  10    5   35 1
  11    6    8 1
  12    6    7 ar
  13    7   10 1
  14    8    9 1
  15    8   36 1
  16    8   37 1
  17    9   10 am
  18    9   11 1
  19   10   13 2
  20   11   12 1
  21   11   38 1
  22   11   39 1
  23   12   23 2
  24   12   26 1
  25   14   17 ar
  26   14   15 ar
  27   15   16 1
  28   15   20 ar
  29   16   21 3
  30   17   18 ar
  31   17   22 1
  32   18   19 ar
  33   18   40 1
  34   19   20 ar
  35   19   41 1
  36   20   42 1
  37   23   24 1
  38   23   43 1
  39   24   25 2
  40   24   44 1
  41   25   26 1
  42   25   27 1
  43   27   28 2
  44   27   31 1
  45   28   29 1
  46   28   45 1
  47   29   30 1
  48   29   32 1
  49   30   31 2
  50   31   46 1
  51   32   47 1
  52   32   48 1
  53   32   49 1

#	End of record

