#	Name: ASD02030126
#	Creating user name:	WinNT
#	Creation time:	15. 06. 2019 20:14

#	Modifying user name:	WinNT
#	Modification time:	15. 06. 2019 20:14

#	Program:	/corina/corina34_cracker 3.40 0067  02.08.2006

@<TRIPOS>MOLECULE
ASD02030126
  65   68    0    0    0
SMALL
NO_CHARGES


@<TRIPOS>ATOM
   1 N1            -0.2116     1.4220    -0.1401 N.am    
   2 C2            -0.0215    -0.0115     0.1219 C.3     
   3 C3            -0.9184    -0.4180     1.2977 C.3     
   4 N4            -2.2774     0.0820     1.0465 N.am    
   5 C5            -2.4675     1.5156     0.7845 C.3     
   6 C6            -1.5712     1.9230    -0.3858 C.3     
   7 C7             0.8414     2.2632    -0.1493 C.2     
   8 C8             2.1838     1.7711     0.2267 C.2     
   9 N9             3.2626     2.5081     0.3818 N.2     
  10 N10            2.5163     0.4913     0.4764 N.2     
  11 C11            3.7907     0.4714     0.7735 C.2     
  12 N12            4.2439     1.7403     0.7102 N.pl3   
  13 O13            0.6874     3.4264    -0.4669 O.2     
  14 C14           -3.3304    -0.7591     1.0557 C.2     
  15 C15           -4.7026    -0.2274     0.9117 C.ar    
  16 O16           -3.1521    -1.9548     1.1825 O.2     
  17 C17           -1.5443     3.4481    -0.5054 C.3     
  18 C18           -2.1092     1.3123    -1.6814 C.3     
  19 C19            5.5597     2.1536     0.9591 C.ar    
  20 C20            5.8976     3.4967     0.8594 C.ar    
  21 C21            7.1952     3.9009     1.1052 C.ar    
  22 C22            8.1575     2.9695     1.4499 C.ar    
  23 C23            7.8240     1.6313     1.5500 C.ar    
  24 C24            6.5267     1.2216     1.3114 C.ar    
  25 C25           -5.6731    -0.9684     0.2375 C.ar    
  26 C26           -6.9564    -0.4642     0.1069 C.ar    
  27 C27           -7.2740     0.7751     0.6455 C.ar    
  28 C28           -6.3128     1.5108     1.3142 C.ar    
  29 C29           -5.0329     1.0154     1.4550 C.ar    
  30 O30           -7.9051    -1.1829    -0.5492 O.3     
  31 C31           -9.2072    -0.6023    -0.6463 C.3     
  32 C32          -10.1323    -1.5499    -1.4126 C.3     
  33 C33          -11.5551    -0.9872    -1.4092 C.3     
  34 C34           -9.6412    -1.6861    -2.8553 C.3     
  35 H35           -0.2967    -0.5848    -0.7634 H       
  36 H36            1.0215    -0.2021     0.3745 H       
  37 H37           -0.9385    -1.5044     1.3840 H       
  38 H38           -0.5329     0.0176     2.2195 H       
  39 H39           -3.5105     1.7062     0.5319 H       
  40 H40           -2.1922     2.0889     1.6698 H       
  41 H41            4.3732    -0.4021     1.0266 H       
  42 H42           -1.0482     3.8723     0.3676 H       
  43 H43           -1.0006     3.7324    -1.4062 H       
  44 H44           -2.5651     3.8261    -0.5626 H       
  45 H45           -3.1226     1.6719    -1.8592 H       
  46 H46           -1.4688     1.6040    -2.5138 H       
  47 H47           -2.1192     0.2258    -1.5941 H       
  48 H48            5.1466     4.2244     0.5895 H       
  49 H49            7.4586     4.9454     1.0278 H       
  50 H50            9.1716     3.2880     1.6410 H       
  51 H51            8.5777     0.9062     1.8194 H       
  52 H52            6.2668     0.1763     1.3900 H       
  53 H53           -5.4245    -1.9322    -0.1817 H       
  54 H54           -8.2753     1.1663     0.5417 H       
  55 H55           -6.5658     2.4746     1.7308 H       
  56 H56           -4.2847     1.5924     1.9782 H       
  57 H57           -9.6061    -0.4354     0.3542 H       
  58 H58           -9.1425     0.3487    -1.1750 H       
  59 H59          -10.1276    -2.5288    -0.9333 H       
  60 H60          -11.5598    -0.0083    -1.8885 H       
  61 H61          -12.2141    -1.6623    -1.9551 H       
  62 H62          -11.9049    -0.8902    -0.3814 H       
  63 H63           -9.6459    -0.7071    -3.3346 H       
  64 H64           -8.6276    -2.0869    -2.8578 H       
  65 H65          -10.3003    -2.3611    -3.4012 H       
@<TRIPOS>BOND
   1    1    2 1
   2    1    7 am
   3    1    6 1
   4    2    3 1
   5    2   35 1
   6    2   36 1
   7    3    4 1
   8    3   37 1
   9    3   38 1
  10    4    5 1
  11    4   14 am
  12    5    6 1
  13    5   39 1
  14    5   40 1
  15    6   17 1
  16    6   18 1
  17    7    8 1
  18    7   13 2
  19    8    9 2
  20    8   10 1
  21    9   12 1
  22   10   11 2
  23   11   12 1
  24   11   41 1
  25   12   19 1
  26   14   15 1
  27   14   16 2
  28   15   25 ar
  29   15   29 ar
  30   17   42 1
  31   17   43 1
  32   17   44 1
  33   18   45 1
  34   18   46 1
  35   18   47 1
  36   19   20 ar
  37   19   24 ar
  38   20   21 ar
  39   20   48 1
  40   21   22 ar
  41   21   49 1
  42   22   23 ar
  43   22   50 1
  44   23   24 ar
  45   23   51 1
  46   24   52 1
  47   25   26 ar
  48   25   53 1
  49   26   27 ar
  50   26   30 1
  51   27   28 ar
  52   27   54 1
  53   28   29 ar
  54   28   55 1
  55   29   56 1
  56   30   31 1
  57   31   32 1
  58   31   57 1
  59   31   58 1
  60   32   33 1
  61   32   34 1
  62   32   59 1
  63   33   60 1
  64   33   61 1
  65   33   62 1
  66   34   63 1
  67   34   64 1
  68   34   65 1

#	End of record

