#	Name: ASD01912097
#	Creating user name:	WinNT
#	Creation time:	15. 06. 2019 19:59

#	Modifying user name:	WinNT
#	Modification time:	15. 06. 2019 19:59

#	Program:	/corina/corina34_cracker 3.40 0067  02.08.2006

@<TRIPOS>MOLECULE
ASD01912097
  58   62    0    0    0
SMALL
NO_CHARGES


@<TRIPOS>ATOM
   1 N1             0.0142     1.3418    -0.2137 N.2     
   2 C2            -0.0048     0.0103    -0.0888 C.2     
   3 N3             1.2168    -0.4135     0.1545 N.2     
   4 N4             2.0445     0.7206     0.1827 N.pl3   
   5 C5             1.2428     1.7852    -0.0525 C.2     
   6 C6             1.6725     3.1999    -0.1177 C.ar    
   7 C7             3.0118     3.5152    -0.3473 C.ar    
   8 C8             3.4062     4.8361    -0.4069 C.ar    
   9 C9             2.4764     5.8468    -0.2395 C.ar    
  10 C10            1.1467     5.5405    -0.0115 C.ar    
  11 C11            0.7389     4.2236     0.0446 C.ar    
  12 C12           -1.2087    -0.8497    -0.2051 C.ar    
  13 C13           -2.4525    -0.2787    -0.4660 C.ar    
  14 C14           -3.5694    -1.0820    -0.5732 C.ar    
  15 C15           -3.4552    -2.4543    -0.4219 C.ar    
  16 C16           -2.2201    -3.0262    -0.1619 C.ar    
  17 C17           -1.0974    -2.2311    -0.0593 C.ar    
  18 C18            3.4899     0.7461     0.4200 C.3     
  19 C19            4.2169     0.5664    -0.8878 C.2     
  20 N20            5.5643     0.5569    -0.9140 N.am    
  21 O21            3.5894     0.4304    -1.9167 O.2     
  22 C22           -4.9154    -0.4655    -0.8549 C.3     
  23 F23           -4.5511    -3.2371    -0.5277 F       
  24 C24            6.2055     0.3793    -2.2082 C.3     
  25 C25            6.8898     1.6920    -2.6248 C.3     
  26 C26            8.1570     1.8254    -1.7946 C.2     
  27 C27            8.1933     2.0117    -0.4785 C.2     
  28 C28            6.9452     2.0961     0.3987 C.3     
  29 C29            6.2574     0.7306     0.3528 C.3     
  30 S30            9.8018     1.7591    -2.4131 S.3     
  31 C31           10.4085     2.0069    -0.8339 C.2     
  32 N32            9.4305     2.1128     0.0041 N.2     
  33 O33           11.7223     2.0810    -0.5087 O.3     
  34 C34           12.0388     2.2930     0.8686 C.3     
  35 H35            3.7386     2.7271    -0.4777 H       
  36 H36            4.4428     5.0815    -0.5842 H       
  37 H37            2.7900     6.8791    -0.2867 H       
  38 H38            0.4256     6.3340     0.1184 H       
  39 H39           -0.2995     3.9857     0.2222 H       
  40 H40           -2.5424     0.7911    -0.5837 H       
  41 H41           -2.1356    -4.0964    -0.0439 H       
  42 H42           -0.1351    -2.6777     0.1430 H       
  43 H43            3.7686     1.7026     0.8622 H       
  44 H44            3.7608    -0.0613     1.1002 H       
  45 H45           -5.0731    -0.4140    -1.9322 H       
  46 H46           -5.6966    -1.0761    -0.4021 H       
  47 H47           -4.9499     0.5394    -0.4341 H       
  48 H48            6.9508    -0.4130    -2.1389 H       
  49 H49            5.4554     0.1088    -2.9513 H       
  50 H50            7.1427     1.6581    -3.6846 H       
  51 H51            6.2269     2.5345    -2.4276 H       
  52 H52            7.2286     2.3347     1.4238 H       
  53 H53            6.2720     2.8613     0.0121 H       
  54 H54            5.5394     0.6597     1.1699 H       
  55 H55            7.0052    -0.0549     0.4616 H       
  56 H56           11.6012     3.2343     1.2012 H       
  57 H57           11.6353     1.4742     1.4643 H       
  58 H58           13.1212     2.3322     0.9908 H       
@<TRIPOS>BOND
   1    1    2 1
   2    1    5 2
   3    2    3 2
   4    2   12 1
   5    3    4 1
   6    4    5 1
   7    4   18 1
   8    5    6 1
   9    6    7 ar
  10    6   11 ar
  11    7    8 ar
  12    7   35 1
  13    8    9 ar
  14    8   36 1
  15    9   10 ar
  16    9   37 1
  17   10   11 ar
  18   10   38 1
  19   11   39 1
  20   12   13 ar
  21   12   17 ar
  22   13   14 ar
  23   13   40 1
  24   14   15 ar
  25   14   22 1
  26   15   16 ar
  27   15   23 1
  28   16   17 ar
  29   16   41 1
  30   17   42 1
  31   18   19 1
  32   18   43 1
  33   18   44 1
  34   19   20 am
  35   19   21 2
  36   20   24 1
  37   20   29 1
  38   22   45 1
  39   22   46 1
  40   22   47 1
  41   24   25 1
  42   24   48 1
  43   24   49 1
  44   25   26 1
  45   25   50 1
  46   25   51 1
  47   26   27 2
  48   26   30 1
  49   27   28 1
  50   27   32 1
  51   28   29 1
  52   28   52 1
  53   28   53 1
  54   29   54 1
  55   29   55 1
  56   30   31 1
  57   31   32 2
  58   31   33 1
  59   33   34 1
  60   34   56 1
  61   34   57 1
  62   34   58 1

#	End of record

