#	Name: ASD01410280
#	Creating user name:	WinNT
#	Creation time:	15. 06. 2019 19:17

#	Modifying user name:	WinNT
#	Modification time:	15. 06. 2019 19:17

#	Program:	/corina/corina34_cracker 3.40 0067  02.08.2006

@<TRIPOS>MOLECULE
ASD01410280
  65   69    0    0    0
SMALL
NO_CHARGES


@<TRIPOS>ATOM
   1 C1             0.5964     1.5341     0.1603 C.2     
   2 C2             1.5994     0.6756     0.4050 C.2     
   3 C3             1.1511    -0.6268    -0.1056 C.2     
   4 C4            -0.0947    -0.4144    -0.6127 C.2     
   5 O5            -0.4053     0.8773    -0.4444 O.3     
   6 N6             1.3596    -3.0923    -0.1880 N.2     
   7 C7             1.8969    -1.9018    -0.0757 C.2     
   8 N8             3.2534    -2.0174     0.0732 N.pl3   
   9 C9             3.5554    -3.3633     0.0493 C.ar    
  10 C10            2.3310    -4.0372    -0.1187 C.ar    
  11 C11            4.7400    -4.0833     0.1526 C.ar    
  12 C12            4.7218    -5.4467     0.0912 C.ar    
  13 C13            3.5125    -6.1341    -0.0762 C.ar    
  14 C14            2.3164    -5.4307    -0.1805 C.ar    
  15 C15            6.2957     0.1161    -0.6743 C.3     
  16 C16            6.9293     0.0501     0.7168 C.3     
  17 C17            5.8366     0.1681     1.7811 C.3     
  18 C18            4.8407    -0.9821     1.6192 C.3     
  19 C19            4.2070    -0.9161     0.2282 C.3     
  20 C20            5.2998    -1.0341    -0.8361 C.3     
  21 C21            3.5071    -7.6094    -0.1415 C.2     
  22 N22            4.6645    -8.2926    -0.0402 N.am    
  23 O23            2.4587    -8.2076    -0.2867 O.2     
  24 C24            4.6591    -9.7562    -0.1050 C.3     
  25 C25            4.6942   -10.2020    -1.5682 C.3     
  26 C26            5.8692   -10.2952     0.6135 C.2     
  27 N27            6.0745   -11.6254     0.6833 N.am    
  28 O28            6.6584    -9.5320     1.1290 O.2     
  29 C29            7.8102   -11.4685     2.3515 C.ar    
  30 C30            8.9763   -11.9688     2.9314 C.ar    
  31 C31            9.5653   -13.1259     2.4168 C.ar    
  32 C32            8.9939   -13.7698     1.3388 C.ar    
  33 C33            7.8384   -13.2735     0.7640 C.ar    
  34 C34            7.2442   -12.1232     1.2686 C.ar    
  35 C35            9.5862   -11.2768     4.0855 C.2     
  36 O36            9.0723   -10.2704     4.5311 O.2     
  37 O37           10.7122   -11.7619     4.6436 O.3     
  38 H38            0.5943     2.5839     0.4138 H       
  39 H39            2.5434     0.8974     0.8803 H       
  40 H40           -0.7250    -1.1608    -1.0731 H       
  41 H41            5.6773    -3.5624     0.2814 H       
  42 H42            5.6461    -5.9995     0.1718 H       
  43 H43            1.3837    -5.9597    -0.3095 H       
  44 H44            5.7752     1.0666    -0.7917 H       
  45 H45            7.0742     0.0321    -1.4325 H       
  46 H46            7.4498    -0.9004     0.8342 H       
  47 H47            7.6388     0.8695     0.8321 H       
  48 H48            6.2880     0.1211     2.7721 H       
  49 H49            5.3161     1.1186     1.6637 H       
  50 H50            5.3611    -1.9326     1.7367 H       
  51 H51            4.0622    -0.8980     2.3775 H       
  52 H52            3.6865     0.0344     0.1108 H       
  53 H53            4.8484    -0.9870    -1.8271 H       
  54 H54            5.8203    -1.9845    -0.7187 H       
  55 H55            5.5009    -7.8153     0.0756 H       
  56 H56            3.7550   -10.1376     0.3695 H       
  57 H57            4.6902   -11.2909    -1.6164 H       
  58 H58            3.8190    -9.8121    -2.0879 H       
  59 H59            5.5983    -9.8206    -2.0427 H       
  60 H60            5.4114   -12.2378     0.3278 H       
  61 H61            7.3476   -10.5766     2.7477 H       
  62 H62           10.4683   -13.5164     2.8625 H       
  63 H63            9.4510   -14.6642     0.9420 H       
  64 H64            7.3958   -13.7820    -0.0798 H       
  65 H65           11.0740   -11.2749     5.3965 H       
@<TRIPOS>BOND
   1    1    2 2
   2    1    5 1
   3    1   38 1
   4    2    3 1
   5    2   39 1
   6    3    4 2
   7    3    7 1
   8    4    5 1
   9    4   40 1
  10    6    7 2
  11    6   10 1
  12    7    8 1
  13    8    9 1
  14    8   19 1
  15    9   10 ar
  16    9   11 ar
  17   10   14 ar
  18   11   12 ar
  19   11   41 1
  20   12   13 ar
  21   12   42 1
  22   13   14 ar
  23   13   21 1
  24   14   43 1
  25   15   16 1
  26   15   20 1
  27   15   44 1
  28   15   45 1
  29   16   17 1
  30   16   46 1
  31   16   47 1
  32   17   18 1
  33   17   48 1
  34   17   49 1
  35   18   19 1
  36   18   50 1
  37   18   51 1
  38   19   20 1
  39   19   52 1
  40   20   53 1
  41   20   54 1
  42   21   22 am
  43   21   23 2
  44   22   24 1
  45   22   55 1
  46   24   25 1
  47   24   26 1
  48   24   56 1
  49   25   57 1
  50   25   58 1
  51   25   59 1
  52   26   27 am
  53   26   28 2
  54   27   34 1
  55   27   60 1
  56   29   30 ar
  57   29   34 ar
  58   29   61 1
  59   30   31 ar
  60   30   35 1
  61   31   32 ar
  62   31   62 1
  63   32   33 ar
  64   32   63 1
  65   33   34 ar
  66   33   64 1
  67   35   36 2
  68   35   37 1
  69   37   65 1

#	End of record

