#	Name: ASD02508478
#	Creating user name:	WinNT
#	Creation time:	15. 06. 2019 20:24

#	Modifying user name:	WinNT
#	Modification time:	15. 06. 2019 20:24

#	Program:	/corina/corina34_cracker 3.40 0067  02.08.2006

@<TRIPOS>MOLECULE
ASD02508478
  35   38    0    0    0
SMALL
NO_CHARGES


@<TRIPOS>ATOM
   1 N1             0.8526     1.7054    -0.0507 N.2     
   2 C2             1.8721     0.8368     0.0287 C.2     
   3 C3             1.3677    -0.4101    -0.0192 C.2     
   4 N4             0.0059    -0.2836    -0.1305 N.pl3   
   5 C5            -0.2700     1.0479    -0.1464 C.2     
   6 C6            -0.9205    -1.3242    -0.2120 C.ar    
   7 N7            -0.5120    -2.5845    -0.3092 N.ar    
   8 C8            -2.2881    -1.0574    -0.1869 C.ar    
   9 C9            -3.1670    -2.1221    -0.2700 C.ar    
  10 N10           -2.6847    -3.3515    -0.3700 N.ar    
  11 C11           -1.3838    -3.5709    -0.3860 C.ar    
  12 S12            2.2808    -1.9156     0.0473 S.o2    
  13 N13            2.4723    -2.4420    -1.5111 N.am    
  14 C14            3.1944    -1.6689    -2.4269 C.ar    
  15 C15            4.4664    -1.2170    -2.1032 C.ar    
  16 C16            5.1808    -0.4531    -3.0070 C.ar    
  17 C17            4.6299    -0.1360    -4.2375 C.ar    
  18 C18            3.3536    -0.5880    -4.5653 C.ar    
  19 C19            2.6410    -1.3583    -3.6620 C.ar    
  20 O20            3.5779    -1.5777     0.5190 O.2     
  21 O21            1.4424    -2.8651     0.6914 O.2     
  22 Cl22          -0.8040    -5.2018    -0.5193 Cl      
  23 O23            5.1183     0.5896    -5.2871 O.3     
  24 C24            4.2971     0.2340    -6.4150 C.3     
  25 O25            3.0428    -0.1458    -5.8189 O.3     
  26 H26            2.9175     1.0939     0.1156 H       
  27 H27           -1.2535     1.4873    -0.2251 H       
  28 H28           -2.6527    -0.0442    -0.1043 H       
  29 H29           -4.2335    -1.9530    -0.2532 H       
  30 H30            2.0839    -3.2863    -1.7890 H       
  31 H31            4.8981    -1.4621    -1.1441 H       
  32 H32            6.1703    -0.1026    -2.7531 H       
  33 H33            1.6514    -1.7097    -3.9143 H       
  34 H34            4.1631     1.0901    -7.0763 H       
  35 H35            4.7332    -0.6052    -6.9569 H       
@<TRIPOS>BOND
   1    1    2 1
   2    1    5 2
   3    2    3 2
   4    2   26 1
   5    3    4 1
   6    3   12 1
   7    4    5 1
   8    4    6 1
   9    5   27 1
  10    6    7 ar
  11    6    8 ar
  12    7   11 ar
  13    8    9 ar
  14    8   28 1
  15    9   10 ar
  16    9   29 1
  17   10   11 ar
  18   11   22 1
  19   12   13 am
  20   12   20 2
  21   12   21 2
  22   13   14 1
  23   13   30 1
  24   14   15 ar
  25   14   19 ar
  26   15   16 ar
  27   15   31 1
  28   16   17 ar
  29   16   32 1
  30   17   18 ar
  31   17   23 1
  32   18   19 ar
  33   18   25 1
  34   19   33 1
  35   23   24 1
  36   24   25 1
  37   24   34 1
  38   24   35 1

#	End of record

