#	Name: ASD04880396
#	Creating user name:	WinNT
#	Creation time:	15. 06. 2019 20:53

#	Modifying user name:	WinNT
#	Modification time:	15. 06. 2019 20:53

#	Program:	/corina/corina34_cracker 3.40 0067  02.08.2006

@<TRIPOS>MOLECULE
ASD04880396
  37   39    0    0    0
SMALL
NO_CHARGES


@<TRIPOS>ATOM
   1 C1            -0.0110     1.3875     0.0540 C.ar    
   2 C2             1.1768     2.0952     0.0876 C.ar    
   3 C3             2.3834     1.4267     0.0588 C.ar    
   4 C4             2.4052     0.0324    -0.0040 C.ar    
   5 C5             1.2039    -0.6779    -0.0373 C.ar    
   6 C6             0.0021     0.0030    -0.0084 C.ar    
   7 C7             3.6948    -0.6889    -0.0356 C.2     
   8 O8             3.7146    -1.9025     0.0368 O.2     
   9 N9             4.8489    -0.0014    -0.1447 N.am    
  10 C10            6.2000    -0.5795    -0.0686 C.3     
  11 N11            4.9576     1.3719    -0.3540 N.2     
  12 C12            6.1711     1.7993    -0.4238 C.2     
  13 C13            7.1257     0.6390    -0.2544 C.3     
  14 F14           -1.1621    -0.6819    -0.0400 F       
  15 C15            6.5676     3.2029    -0.6388 C.ar    
  16 C16            5.5921     4.1935    -0.7851 C.ar    
  17 C17            5.9744     5.5109    -0.9869 C.ar    
  18 C18            7.3207     5.8424    -1.0432 C.ar    
  19 C19            8.2870     4.8632    -0.8987 C.ar    
  20 C20            7.9201     3.5498    -0.6916 C.ar    
  21 F21            4.2819     3.8684    -0.7304 F       
  22 O22            5.0298     6.4783    -1.1303 O.3     
  23 C23            5.4949     7.8138    -1.3352 C.3     
  24 H24           -0.9527     1.9157     0.0810 H       
  25 H25            1.1597     3.1739     0.1362 H       
  26 H26            3.3098     1.9814     0.0844 H       
  27 H27            1.2140    -1.7567    -0.0862 H       
  28 H28            6.3652    -1.0418     0.9046 H       
  29 H29            6.3532    -1.3033    -0.8691 H       
  30 H30            7.7504     0.7835     0.6271 H       
  31 H31            7.7420     0.5179    -1.1453 H       
  32 H32            7.6153     6.8694    -1.2010 H       
  33 H33            9.3328     5.1288    -0.9440 H       
  34 H34            8.6779     2.7884    -0.5793 H       
  35 H35            4.6414     8.4846    -1.4338 H       
  36 H36            6.1025     8.1216    -0.4843 H       
  37 H37            6.0954     7.8540    -2.2440 H       
@<TRIPOS>BOND
   1    1    2 ar
   2    1    6 ar
   3    1   24 1
   4    2    3 ar
   5    2   25 1
   6    3    4 ar
   7    3   26 1
   8    4    5 ar
   9    4    7 1
  10    5    6 ar
  11    5   27 1
  12    6   14 1
  13    7    8 2
  14    7    9 am
  15    9   10 1
  16    9   11 1
  17   10   13 1
  18   10   28 1
  19   10   29 1
  20   11   12 2
  21   12   13 1
  22   12   15 1
  23   13   30 1
  24   13   31 1
  25   15   16 ar
  26   15   20 ar
  27   16   17 ar
  28   16   21 1
  29   17   18 ar
  30   17   22 1
  31   18   19 ar
  32   18   32 1
  33   19   20 ar
  34   19   33 1
  35   20   34 1
  36   22   23 1
  37   23   35 1
  38   23   36 1
  39   23   37 1

#	End of record

