#	Name: ASD01440105
#	Creating user name:	WinNT
#	Creation time:	15. 06. 2019 19:21

#	Modifying user name:	WinNT
#	Modification time:	15. 06. 2019 19:21

#	Program:	/corina/corina34_cracker 3.40 0067  02.08.2006

@<TRIPOS>MOLECULE
ASD01440105
  41   43    0    0    0
SMALL
NO_CHARGES


@<TRIPOS>ATOM
   1 C1             0.5745     0.4290    -0.0264 C.ar    
   2 C2             0.6570    -0.9417     0.0686 C.ar    
   3 C3             1.8985    -1.5606     0.1642 C.ar    
   4 C4             3.0615    -0.7986     0.1644 C.ar    
   5 C5             2.9883     0.5727     0.0694 C.ar    
   6 C6             1.7417     1.1993    -0.0270 C.ar    
   7 C7             1.6583     2.6683    -0.1290 C.2     
   8 O8             0.5820     3.2052    -0.3074 O.2     
   9 C9             2.8825     3.4875    -0.0144 C.ar    
  10 O10            1.9752    -2.9121     0.2580 O.3     
  11 C11            3.2819    -3.4826     0.3533 C.3     
  12 C12            3.1694    -4.9824     0.4488 C.2     
  13 N13            4.2820    -5.7366     0.5478 N.am    
  14 O14            2.0777    -5.5107     0.4365 O.2     
  15 C15            3.4572     4.0538    -1.1548 C.ar    
  16 C16            4.5995     4.8177    -1.0405 C.ar    
  17 C17            5.1775     5.0237     0.2004 C.ar    
  18 C18            4.6146     4.4659     1.3341 C.ar    
  19 C19            3.4676     3.7042     1.2357 C.ar    
  20 I20            2.6117     2.8674     2.9551 I       
  21 C21            4.1756    -7.1178     0.7469 C.ar    
  22 C22            5.1844    -7.9712     0.3190 C.ar    
  23 N23            5.0875    -9.2724     0.5042 N.ar    
  24 C24            4.0413    -9.8140     1.0972 C.ar    
  25 C25            2.9970    -9.0299     1.5505 C.ar    
  26 C26            3.0595    -7.6562     1.3819 C.ar    
  27 H27           -0.3900     0.9086    -0.1047 H       
  28 H28           -0.2439    -1.5374     0.0691 H       
  29 H29            4.0237    -1.2832     0.2396 H       
  30 H30            3.8921     1.1639     0.0700 H       
  31 H31            3.8597    -3.2172    -0.5321 H       
  32 H32            3.7822    -3.0985     1.2422 H       
  33 H33            5.1565    -5.3222     0.4812 H       
  34 H34            3.0081     3.8935    -2.1238 H       
  35 H35            5.0447     5.2560    -1.9215 H       
  36 H36            6.0723     5.6226     0.2837 H       
  37 H37            5.0710     4.6305     2.2990 H       
  38 H38            6.0567    -7.5645    -0.1708 H       
  39 H39            3.9997   -10.8849     1.2301 H       
  40 H40            2.1443    -9.4826     2.0346 H       
  41 H41            2.2603    -7.0190     1.7306 H       
@<TRIPOS>BOND
   1    1    2 ar
   2    1    6 ar
   3    1   27 1
   4    2    3 ar
   5    2   28 1
   6    3    4 ar
   7    3   10 1
   8    4    5 ar
   9    4   29 1
  10    5    6 ar
  11    5   30 1
  12    6    7 1
  13    7    8 2
  14    7    9 1
  15    9   15 ar
  16    9   19 ar
  17   10   11 1
  18   11   12 1
  19   11   31 1
  20   11   32 1
  21   12   13 am
  22   12   14 2
  23   13   21 1
  24   13   33 1
  25   15   16 ar
  26   15   34 1
  27   16   17 ar
  28   16   35 1
  29   17   18 ar
  30   17   36 1
  31   18   19 ar
  32   18   37 1
  33   19   20 1
  34   21   22 ar
  35   21   26 ar
  36   22   23 ar
  37   22   38 1
  38   23   24 ar
  39   24   25 ar
  40   24   39 1
  41   25   26 ar
  42   25   40 1
  43   26   41 1

#	End of record

