#	Name: ASD01208743
#	Creating user name:	WinNT
#	Creation time:	15. 06. 2019 19:10

#	Modifying user name:	WinNT
#	Modification time:	15. 06. 2019 19:10

#	Program:	/corina/corina34_cracker 3.40 0067  02.08.2006

@<TRIPOS>MOLECULE
ASD01208743
  55   58    0    0    0
SMALL
NO_CHARGES


@<TRIPOS>ATOM
   1 C1             0.1638     1.3099    -0.1915 C.2     
   2 C2             0.1927    -0.1056     0.2137 C.ar    
   3 C3             1.3806    -0.8456     0.1052 C.ar    
   4 C4             1.3989    -2.1755     0.4888 C.ar    
   5 C5             0.2465    -2.7728     0.9784 C.ar    
   6 C6            -0.9319    -2.0406     1.0861 C.ar    
   7 C7            -0.9616    -0.7164     0.7135 C.ar    
   8 O8             1.1705     1.8401    -0.6212 O.2     
   9 N9            -0.9797     2.0163    -0.0914 N.am    
  10 S10            0.3307     4.2221    -1.0864 S.3     
  11 C11           -1.0069     3.3514    -0.4736 C.2     
  12 N12           -2.0505     4.1186    -0.4179 N.2     
  13 C13           -1.8976     5.3655    -0.8231 C.2     
  14 C14           -0.6665     5.6661    -1.2409 C.2     
  15 C15           -3.0225     6.3683    -0.8150 C.3     
  16 O16            2.5062    -0.2598    -0.3742 O.3     
  17 C17            3.6177    -1.0288    -0.5081 C.ar    
  18 C18            3.7263    -1.9093    -1.5771 C.ar    
  19 C19            4.8525    -2.6912    -1.7165 C.ar    
  20 C20            5.8854    -2.5972    -0.7817 C.ar    
  21 C21            5.7728    -1.7107     0.2911 C.ar    
  22 C22            4.6455    -0.9287     0.4210 C.ar    
  23 O23            8.1623    -3.4467    -0.1044 O.3     
  24 C24            7.0945    -3.4342    -0.9272 C.2     
  25 N25            7.3289    -4.3046    -1.8816 N.2     
  26 N26            8.4792    -4.8473    -1.6876 N.2     
  27 C27            9.0202    -4.3494    -0.6112 C.2     
  28 C28           10.3645    -4.7184    -0.0387 C.3     
  29 O29            0.2683    -4.0769     1.3535 O.3     
  30 C30           -0.9173    -6.1764     1.5174 C.3     
  31 C31           -0.9778    -4.6632     1.7350 C.3     
  32 C32           -1.2480    -4.3708     3.2123 C.3     
  33 C33           -0.7772    -6.4602     0.0798 C.1     
  34 N34           -0.6692    -6.6792    -1.0297 N.1     
  35 H35            2.3107    -2.7485     0.4066 H       
  36 H36           -1.8254    -2.5122     1.4678 H       
  37 H37           -1.8769    -0.1503     0.8031 H       
  38 H38           -1.7836     1.5923     0.2476 H       
  39 H39           -0.3387     6.6270    -1.6093 H       
  40 H40           -3.0378     6.8895     0.1423 H       
  41 H41           -2.8726     7.0891    -1.6187 H       
  42 H42           -3.9709     5.8516    -0.9625 H       
  43 H43            2.9269    -1.9814    -2.2998 H       
  44 H44            4.9359    -3.3760    -2.5475 H       
  45 H45            6.5697    -1.6353     1.0162 H       
  46 H46            4.5594    -0.2398     1.2483 H       
  47 H47           10.2464    -5.5441     0.6630 H       
  48 H48           11.0326    -5.0200    -0.8455 H       
  49 H49           10.7869    -3.8580     0.4803 H       
  50 H50           -0.0616    -6.5867     2.0537 H       
  51 H51           -1.8335    -6.6341     1.8905 H       
  52 H52           -1.7789    -4.2407     1.1285 H       
  53 H53           -0.4469    -4.7933     3.8187 H       
  54 H54           -1.2911    -3.2927     3.3673 H       
  55 H55           -2.1985    -4.8180     3.5033 H       
@<TRIPOS>BOND
   1    1    2 1
   2    1    8 2
   3    1    9 am
   4    2    3 ar
   5    2    7 ar
   6    3    4 ar
   7    3   16 1
   8    4    5 ar
   9    4   35 1
  10    5    6 ar
  11    5   29 1
  12    6    7 ar
  13    6   36 1
  14    7   37 1
  15    9   11 1
  16    9   38 1
  17   10   11 1
  18   10   14 1
  19   11   12 2
  20   12   13 1
  21   13   14 2
  22   13   15 1
  23   14   39 1
  24   15   40 1
  25   15   41 1
  26   15   42 1
  27   16   17 1
  28   17   18 ar
  29   17   22 ar
  30   18   19 ar
  31   18   43 1
  32   19   20 ar
  33   19   44 1
  34   20   21 ar
  35   20   24 1
  36   21   22 ar
  37   21   45 1
  38   22   46 1
  39   23   24 1
  40   23   27 1
  41   24   25 2
  42   25   26 1
  43   26   27 2
  44   27   28 1
  45   28   47 1
  46   28   48 1
  47   28   49 1
  48   29   31 1
  49   30   31 1
  50   30   33 1
  51   30   50 1
  52   30   51 1
  53   31   32 1
  54   31   52 1
  55   32   53 1
  56   32   54 1
  57   32   55 1
  58   33   34 3

#	End of record

