#	Name: ASD01180139
#	Creating user name:	WinNT
#	Creation time:	15. 06. 2019 19:06

#	Modifying user name:	WinNT
#	Modification time:	15. 06. 2019 19:06

#	Program:	/corina/corina34_cracker 3.40 0067  02.08.2006

@<TRIPOS>MOLECULE
ASD01180139
  63   67    0    0    0
SMALL
NO_CHARGES


@<TRIPOS>ATOM
   1 C1             5.6792    -4.7216     2.9781 C.3     
   2 C2             5.1118    -3.5499     2.1742 C.3     
   3 C3             6.0176    -2.3287     2.3442 C.3     
   4 N4             5.0462    -3.9170     0.7534 N.3     
   5 C5             6.4058    -3.9910     0.1593 C.3     
   6 C6             6.1753    -3.8402    -1.3597 C.3     
   7 C7             4.8289    -3.0986    -1.4892 C.3     
   8 C8             4.3591    -2.8637    -0.0375 C.3     
   9 H9             4.6612    -1.8738     0.3044 H       
  10 C10            2.8410    -3.0246     0.0647 C.3     
  11 N11            2.4303    -2.9028     1.4657 N.am    
  12 C12            2.2156    -1.6849     2.0016 C.2     
  13 O13            2.4632    -0.6835     1.3555 O.2     
  14 C14            1.6841    -1.5664     3.3620 C.2     
  15 C15            2.5122    -1.7069     4.4153 C.2     
  16 N16            2.0645    -1.6052     5.7054 N.am    
  17 C17            3.0086    -1.7672     6.8138 C.3     
  18 C18            3.6041    -3.1902     6.7970 C.3     
  19 C19            4.9436    -3.0326     6.0355 C.3     
  20 C20            5.4611    -1.6606     6.5347 C.3     
  21 C21            4.1894    -0.7947     6.6470 C.3     
  22 C22            0.7652    -1.3571     5.9679 C.2     
  23 O23            0.3736    -1.2670     7.1167 O.2     
  24 C24           -0.1705    -1.1967     4.8466 C.2     
  25 C25           -1.5069    -0.9459     4.7978 C.2     
  26 Cl26          -2.5587    -0.7284     6.1616 Cl      
  27 C27           -1.8851    -0.8938     3.4349 C.ar    
  28 C28           -3.1063    -0.6723     2.7845 C.ar    
  29 C29           -3.1606    -0.6807     1.4214 C.ar    
  30 C30           -2.0145    -0.9070     0.6688 C.ar    
  31 C31           -0.8029    -1.1276     1.2835 C.ar    
  32 C32           -0.7205    -1.1237     2.6741 C.ar    
  33 N33            0.3192    -1.3020     3.5532 N.pl3   
  34 H34            4.9934    -5.5669     2.9215 H       
  35 H35            6.6463    -5.0102     2.5663 H       
  36 H36            5.8021    -4.4224     4.0190 H       
  37 H37            4.1108    -3.3128     2.5348 H       
  38 H38            7.0474    -2.6059     2.1186 H       
  39 H39            5.6962    -1.5403     1.6635 H       
  40 H40            5.9547    -1.9698     3.3714 H       
  41 H41            7.0282    -3.1775     0.5319 H       
  42 H42            6.8653    -4.9544     0.3803 H       
  43 H43            6.9762    -3.2518    -1.8076 H       
  44 H44            6.1146    -4.8204    -1.8326 H       
  45 H45            4.9688    -2.1463    -2.0006 H       
  46 H46            4.1073    -3.7148    -2.0256 H       
  47 H47            2.3529    -2.2492    -0.5257 H       
  48 H48            2.5532    -4.0052    -0.3143 H       
  49 H49            2.3129    -3.6987     2.0076 H       
  50 H50            3.5586    -1.9059     4.2372 H       
  51 H51            2.5049    -1.5836     7.7628 H       
  52 H52            3.7821    -3.5413     7.8135 H       
  53 H53            2.9420    -3.8746     6.2666 H       
  54 H54            5.6374    -3.8286     6.3055 H       
  55 H55            4.7758    -3.0136     4.9587 H       
  56 H56            5.9391    -1.7647     7.5087 H       
  57 H57            6.1542    -1.2287     5.8127 H       
  58 H58            4.0599    -0.2021     5.7413 H       
  59 H59            4.2592    -0.1397     7.5154 H       
  60 H60           -4.0025    -0.4959     3.3608 H       
  61 H61           -4.1031    -0.5100     0.9225 H       
  62 H62           -2.0752    -0.9103    -0.4095 H       
  63 H63            0.0816    -1.3032     0.6892 H       
@<TRIPOS>BOND
   1    1    2 1
   2    1   34 1
   3    1   35 1
   4    1   36 1
   5    2    3 1
   6    2    4 1
   7    2   37 1
   8    3   38 1
   9    3   39 1
  10    3   40 1
  11    4    8 1
  12    4    5 1
  13    5    6 1
  14    5   41 1
  15    5   42 1
  16    6    7 1
  17    6   43 1
  18    6   44 1
  19    7    8 1
  20    7   45 1
  21    7   46 1
  22    8    9 1
  23    8   10 1
  24   10   11 1
  25   10   47 1
  26   10   48 1
  27   11   12 am
  28   11   49 1
  29   12   13 2
  30   12   14 1
  31   14   33 1
  32   14   15 2
  33   15   16 1
  34   15   50 1
  35   16   17 1
  36   16   22 am
  37   17   21 1
  38   17   18 1
  39   17   51 1
  40   18   19 1
  41   18   52 1
  42   18   53 1
  43   19   20 1
  44   19   54 1
  45   19   55 1
  46   20   21 1
  47   20   56 1
  48   20   57 1
  49   21   58 1
  50   21   59 1
  51   22   23 2
  52   22   24 1
  53   24   33 1
  54   24   25 2
  55   25   26 1
  56   25   27 1
  57   27   32 ar
  58   27   28 ar
  59   28   29 ar
  60   28   60 1
  61   29   30 ar
  62   29   61 1
  63   30   31 ar
  64   30   62 1
  65   31   32 ar
  66   31   63 1
  67   32   33 1

#	End of record

