#	Name: ASD01901326
#	Creating user name:	WinNT
#	Creation time:	15. 06. 2019 19:53

#	Modifying user name:	WinNT
#	Modification time:	15. 06. 2019 19:53

#	Program:	/corina/corina34_cracker 3.40 0067  02.08.2006

@<TRIPOS>MOLECULE
ASD01901326
  42   45    0    0    0
SMALL
NO_CHARGES


@<TRIPOS>ATOM
   1 C1            -0.0167     1.3799     0.0096 C.ar    
   2 C2             0.0021    -0.0041     0.0020 C.ar    
   3 C3             1.2154    -0.6826    -0.0132 C.ar    
   4 C4             2.4059     0.0226    -0.0208 C.ar    
   5 C5             2.3942     1.4034    -0.0128 C.ar    
   6 C6             1.1821     2.0897     0.0020 C.ar    
   7 C7             1.1677     3.5738     0.0096 C.2     
   8 N8             0.6207     5.6006    -1.0708 N.2     
   9 C9             0.6310     4.2901    -1.0822 C.2     
  10 C10            1.6689     4.2662     1.0762 C.2     
  11 N11            1.6404     5.6292     1.0509 N.pl3   
  12 C12            1.1157     6.2884    -0.0309 C.2     
  13 C13            2.0545     6.5814     1.9430 C.2     
  14 C14            1.7784     7.7842     1.3959 C.2     
  15 N15            1.2122     7.5899     0.2011 N.2     
  16 C16            2.0628     9.1230     2.0265 C.3     
  17 O17            2.6747     8.9278     3.3031 O.3     
  18 C18            2.9980    10.0430     4.0093 C.ar    
  19 C19            2.7266    11.2992     3.4869 C.ar    
  20 C20            3.5948     9.9270     5.2563 C.ar    
  21 C21            3.9225    11.0621     5.9722 C.ar    
  22 C22            3.6558    12.3131     5.4470 C.ar    
  23 C23            3.0563    12.4313     4.2067 C.ar    
  24 O24           -1.1659    -0.6999     0.0099 O.3     
  25 C25           -2.3748     0.0620     0.0260 C.3     
  26 F26            1.2322    -2.0335    -0.0202 F       
  27 H27           -0.9585     1.9084     0.0170 H       
  28 H28            3.3464    -0.5082    -0.0326 H       
  29 H29            3.3249     1.9512    -0.0180 H       
  30 H30            0.2278     3.7562    -1.9300 H       
  31 H31            2.0807     3.7420     1.9258 H       
  32 H32            2.5150     6.4038     2.9036 H       
  33 H33            2.7354     9.6916     1.3843 H       
  34 H34            1.1292     9.6716     2.1512 H       
  35 H35            2.2584    11.3921     2.5181 H       
  36 H36            3.8027     8.9501     5.6672 H       
  37 H37            4.3871    10.9724     6.9430 H       
  38 H38            3.9124    13.1993     6.0084 H       
  39 H39            2.8452    13.4094     3.8005 H       
  40 H40           -2.3994     0.6856     0.9196 H       
  41 H41           -2.4171     0.6951    -0.8602 H       
  42 H42           -3.2301    -0.6138     0.0308 H       
@<TRIPOS>BOND
   1    1    2 ar
   2    1    6 ar
   3    1   27 1
   4    2    3 ar
   5    2   24 1
   6    3    4 ar
   7    3   26 1
   8    4    5 ar
   9    4   28 1
  10    5    6 ar
  11    5   29 1
  12    6    7 1
  13    7   10 2
  14    7    9 1
  15    8    9 2
  16    8   12 1
  17    9   30 1
  18   10   11 1
  19   10   31 1
  20   11   13 1
  21   11   12 1
  22   12   15 2
  23   13   14 2
  24   13   32 1
  25   14   15 1
  26   14   16 1
  27   16   17 1
  28   16   33 1
  29   16   34 1
  30   17   18 1
  31   18   20 ar
  32   18   19 ar
  33   19   23 ar
  34   19   35 1
  35   20   21 ar
  36   20   36 1
  37   21   22 ar
  38   21   37 1
  39   22   23 ar
  40   22   38 1
  41   23   39 1
  42   24   25 1
  43   25   40 1
  44   25   41 1
  45   25   42 1

#	End of record

