#	Name: ASD04170045
#	Creating user name:	WinNT
#	Creation time:	15. 06. 2019 20:48

#	Modifying user name:	WinNT
#	Modification time:	15. 06. 2019 20:48

#	Program:	/corina/corina34_cracker 3.40 0067  02.08.2006

@<TRIPOS>MOLECULE
ASD04170045
  40   42    0    0    0
SMALL
NO_CHARGES


@<TRIPOS>ATOM
   1 C1            -0.0173     1.4248     0.0099 C.3     
   2 O2             0.0021    -0.0041     0.0020 O.3     
   3 C3             0.6049    -0.6063    -1.0542 C.ar    
   4 C4             0.6585    -1.9935    -1.1233 C.ar    
   5 C5             1.2697    -2.6083    -2.1932 C.ar    
   6 C6             1.8361    -1.8357    -3.2104 C.ar    
   7 C7             1.7798    -0.4414    -3.1374 C.ar    
   8 C8             1.1622     0.1658    -2.0669 C.ar    
   9 C9             2.4927    -2.4906    -4.3587 C.2     
  10 O10            2.5411    -3.7039    -4.4204 O.2     
  11 N11            3.0385    -1.7437    -5.3389 N.am    
  12 C12            3.6901    -2.3938    -6.4786 C.3     
  13 C13            2.6414    -2.7479    -7.5354 C.3     
  14 N14            2.9479    -2.0652    -8.7946 N.4     
  15 C15            4.2513    -2.4923    -9.3088 C.3     
  16 C16            5.3531    -2.1290    -8.3110 C.3     
  17 C17            4.7150    -1.4358    -7.0999 C.3     
  18 C18            3.9730    -0.1867    -7.5932 C.3     
  19 C19            2.9154    -0.6119    -8.6143 C.3     
  20 H20            1.0053     1.8021     0.0021 H       
  21 H21           -0.5445     1.7859    -0.8732 H       
  22 H22           -0.5275     1.7763     0.9067 H       
  23 H23            0.2204    -2.5899    -0.3367 H       
  24 H24            1.3115    -3.6862    -2.2458 H       
  25 H25            2.2168     0.1592    -3.9215 H       
  26 H26            1.1183     1.2434    -2.0097 H       
  27 H27            2.9998    -0.7757    -5.2897 H       
  28 H28            4.1919    -3.3015    -6.1435 H       
  29 H29            2.6422    -3.8256    -7.6987 H       
  30 H30            1.6567    -2.4375    -7.1860 H       
  31 H31            2.2414    -2.3115    -9.4715 H       
  32 H32            4.2436    -3.5715    -9.4621 H       
  33 H33            4.4457    -1.9952   -10.2592 H       
  34 H34            5.8647    -3.0349    -7.9857 H       
  35 H35            6.0665    -1.4542    -8.7841 H       
  36 H36            5.4795    -1.1743    -6.3682 H       
  37 H37            3.4893     0.3075    -6.7506 H       
  38 H38            4.6804     0.4967    -8.0630 H       
  39 H39            3.1171    -0.1245    -9.5682 H       
  40 H40            1.9291    -0.3135    -8.2591 H       
@<TRIPOS>BOND
   1    1    2 1
   2    1   20 1
   3    1   21 1
   4    1   22 1
   5    2    3 1
   6    3    4 ar
   7    3    8 ar
   8    4    5 ar
   9    4   23 1
  10    5    6 ar
  11    5   24 1
  12    6    7 ar
  13    6    9 1
  14    7    8 ar
  15    7   25 1
  16    8   26 1
  17    9   10 2
  18    9   11 am
  19   11   12 1
  20   11   27 1
  21   12   13 1
  22   12   17 1
  23   12   28 1
  24   13   14 1
  25   13   29 1
  26   13   30 1
  27   14   15 1
  28   14   19 1
  29   14   31 1
  30   15   16 1
  31   15   32 1
  32   15   33 1
  33   16   17 1
  34   16   34 1
  35   16   35 1
  36   17   18 1
  37   17   36 1
  38   18   19 1
  39   18   37 1
  40   18   38 1
  41   19   39 1
  42   19   40 1

#	End of record

