#	Name: ASD01811063
#	Creating user name:	WinNT
#	Creation time:	15. 06. 2019 19:25

#	Modifying user name:	WinNT
#	Modification time:	15. 06. 2019 19:25

#	Program:	/corina/corina34_cracker 3.40 0067  02.08.2006

@<TRIPOS>MOLECULE
ASD01811063
  42   45    0    0    0
SMALL
NO_CHARGES


@<TRIPOS>ATOM
   1 C1            -0.0167     1.3786     0.0096 C.2     
   2 C2             0.0021    -0.0041     0.0020 C.2     
   3 C3            -1.2696    -0.8273     0.0019 C.3     
   4 C4            -2.4634     0.0115     0.3318 C.2     
   5 C5            -2.4955     1.3486     0.3417 C.2     
   6 C6            -1.2759     2.1397     0.0319 C.2     
   7 C7            -1.4625    -1.4499    -1.3824 C.3     
   8 C8            -2.6570    -2.3684    -1.3580 C.ar    
   9 C9            -3.9130    -1.8736    -1.6594 C.ar    
  10 C10           -5.0104    -2.7103    -1.6386 C.ar    
  11 C11           -4.8513    -4.0558    -1.3133 C.ar    
  12 C12           -3.5837    -4.5489    -1.0106 C.ar    
  13 C13           -2.4924    -3.7044    -1.0399 C.ar    
  14 C14           -6.0275    -4.9602    -1.2889 C.ar    
  15 C15           -5.8684    -6.3057    -0.9636 C.ar    
  16 C16           -6.9659    -7.1423    -0.9424 C.ar    
  17 C17           -8.2219    -6.6475    -1.2438 C.ar    
  18 C18           -8.3855    -5.3128    -1.5679 C.ar    
  19 C19           -7.2960    -4.4657    -1.5856 C.ar    
  20 O20           -1.3160     3.3363    -0.1886 O.2     
  21 C21           -3.7556     2.0460     0.6634 C.2     
  22 O22           -4.7565     1.4058     0.9173 O.2     
  23 O23           -3.7962     3.3926     0.6756 O.3     
  24 S24            1.6196     1.9966    -0.0027 S.3     
  25 C25            2.2632     0.4158    -0.0117 C.2     
  26 C26            1.2870    -0.4993    -0.0077 C.2     
  27 H27           -1.1786    -1.6240     0.7402 H       
  28 H28           -3.3771    -0.5066     0.5829 H       
  29 H29           -1.6261    -0.6606    -2.1161 H       
  30 H30           -0.5725    -2.0183    -1.6524 H       
  31 H31           -4.0353    -0.8304    -1.9110 H       
  32 H32           -5.9907    -2.3229    -1.8737 H       
  33 H33           -3.4548    -5.5910    -0.7578 H       
  34 H34           -1.5095    -4.0856    -0.8055 H       
  35 H35           -4.8880    -6.6932    -0.7288 H       
  36 H36           -6.8437    -8.1854    -0.6904 H       
  37 H37           -9.0779    -7.3058    -1.2264 H       
  38 H38           -9.3684    -4.9317    -1.8027 H       
  39 H39           -7.4249    -3.4237    -1.8384 H       
  40 H40           -4.6439     3.8044     0.8919 H       
  41 H41            3.3182     0.1848    -0.0199 H       
  42 H42            1.4937    -1.5593    -0.0115 H       
@<TRIPOS>BOND
   1    1    2 2
   2    1   24 1
   3    1    6 1
   4    2    3 1
   5    2   26 1
   6    3    4 1
   7    3    7 1
   8    3   27 1
   9    4    5 2
  10    4   28 1
  11    5    6 1
  12    5   21 1
  13    6   20 2
  14    7    8 1
  15    7   29 1
  16    7   30 1
  17    8    9 ar
  18    8   13 ar
  19    9   10 ar
  20    9   31 1
  21   10   11 ar
  22   10   32 1
  23   11   12 ar
  24   11   14 1
  25   12   13 ar
  26   12   33 1
  27   13   34 1
  28   14   15 ar
  29   14   19 ar
  30   15   16 ar
  31   15   35 1
  32   16   17 ar
  33   16   36 1
  34   17   18 ar
  35   17   37 1
  36   18   19 ar
  37   18   38 1
  38   19   39 1
  39   21   22 2
  40   21   23 1
  41   23   40 1
  42   24   25 1
  43   25   26 2
  44   25   41 1
  45   26   42 1

#	End of record

