#	Name: ASD01911505
#	Creating user name:	WinNT
#	Creation time:	15. 06. 2019 19:57

#	Modifying user name:	WinNT
#	Modification time:	15. 06. 2019 19:57

#	Program:	/corina/corina34_cracker 3.40 0067  02.08.2006

@<TRIPOS>MOLECULE
ASD01911505
  16   17    0    0    0
SMALL
NO_CHARGES


@<TRIPOS>ATOM
   1 C1            -0.0187     1.5273     0.0104 C.3     
   2 C2             0.0021    -0.0041     0.0020 C.3     
   3 C3             1.3075     0.7795    -0.0062 C.3     
   4 N4             2.1971     0.7980    -1.1680 N.am    
   5 C5             3.4686     0.8131    -0.7385 C.2     
   6 N6             3.5909     0.8074     0.5966 N.am    
   7 C7             2.2499     0.7857     1.2048 C.3     
   8 O8             4.4229     0.8303    -1.4917 O.2     
   9 H9            -0.3239     2.0319    -0.9063 H       
  10 H10           -0.3063     2.0220     0.9382 H       
  11 H11           -0.2719    -0.5165     0.9242 H       
  12 H12           -0.2895    -0.5066    -0.9202 H       
  13 H13            1.9144     0.7990    -2.0959 H       
  14 H14            4.4293     0.8161     1.0844 H       
  15 H15            2.0892     1.6768     1.8116 H       
  16 H16            2.1137    -0.1161     1.8017 H       
@<TRIPOS>BOND
   1    1    2 1
   2    1    3 1
   3    1    9 1
   4    1   10 1
   5    2    3 1
   6    2   11 1
   7    2   12 1
   8    3    4 1
   9    3    7 1
  10    4    5 am
  11    4   13 1
  12    5    6 am
  13    5    8 2
  14    6    7 1
  15    6   14 1
  16    7   15 1
  17    7   16 1

#	End of record

