#	Name: ASD01816372
#	Creating user name:	WinNT
#	Creation time:	15. 06. 2019 19:35

#	Modifying user name:	WinNT
#	Modification time:	15. 06. 2019 19:35

#	Program:	/corina/corina34_cracker 3.40 0067  02.08.2006

@<TRIPOS>MOLECULE
ASD01816372
  46   50    0    0    0
SMALL
NO_CHARGES


@<TRIPOS>ATOM
   1 C1            -0.0167     1.3814     0.0096 C.ar    
   2 C2             0.0021    -0.0041     0.0020 C.ar    
   3 C3             1.1982    -0.6909    -0.0131 C.ar    
   4 C4             2.4015     0.0060    -0.0203 C.ar    
   5 C5             2.3790     1.4107    -0.0126 C.ar    
   6 C6             1.1662     2.0917     0.0022 C.ar    
   7 N7             3.6050    -0.6769    -0.0345 N.pl3   
   8 C8             4.7970    -0.0582    -0.0420 C.2     
   9 C9             4.8998     1.3105    -0.0361 C.2     
  10 C10            3.6669     2.1303    -0.0205 C.2     
  11 C11            5.9971     2.2734    -0.0419 C.2     
  12 N12            5.4243     3.4964    -0.0310 N.am    
  13 N13            4.0320     3.3799    -0.0183 N.2     
  14 O14            7.1902     2.0238    -0.0534 O.2     
  15 C15            3.5777    -2.1417    -0.0411 C.3     
  16 C16            3.5553    -2.6373    -1.4641 C.ar    
  17 C17            4.7431    -2.8865    -2.1267 C.ar    
  18 C18            4.7259    -3.3404    -3.4310 C.ar    
  19 C19            3.5142    -3.5467    -4.0768 C.ar    
  20 C20            2.3232    -3.2960    -3.4087 C.ar    
  21 C21            2.3469    -2.8472    -2.1027 C.ar    
  22 N22            3.4934    -4.0069    -5.4008 N.pl3   
  23 C23            2.3886    -4.2481    -6.1422 C.2     
  24 C24            2.7953    -4.6775    -7.3593 C.2     
  25 C25            4.1943    -4.6998    -7.3630 C.2     
  26 N26            4.6136    -4.2924    -6.1920 N.2     
  27 C27            6.0994     4.6629    -0.0319 C.2     
  28 O28            7.3117     4.6616    -0.0432 O.2     
  29 C29            5.3473     5.9688    -0.0190 C.3     
  30 H30           -0.9602     1.9069     0.0169 H       
  31 H31           -0.9289    -0.5515     0.0083 H       
  32 H32            1.2002    -1.7708    -0.0189 H       
  33 H33            1.1505     3.1716     0.0081 H       
  34 H34            5.6982    -0.6532    -0.0527 H       
  35 H35            4.4653    -2.5239     0.4629 H       
  36 H36            2.6858    -2.4907     0.4793 H       
  37 H37            5.6853    -2.7258    -1.6238 H       
  38 H38            5.6539    -3.5342    -3.9483 H       
  39 H39            1.3792    -3.4552    -3.9086 H       
  40 H40            1.4208    -2.6520    -1.5825 H       
  41 H41            1.3654    -4.1214    -5.8206 H       
  42 H42            2.1533    -4.9541    -8.1826 H       
  43 H43            4.8204    -4.9976    -8.1910 H       
  44 H44            4.2755     5.7707    -0.0100 H       
  45 H45            5.6195     6.5360     0.8710 H       
  46 H46            5.6030     6.5441    -0.9088 H       
@<TRIPOS>BOND
   1    1    2 ar
   2    1    6 ar
   3    1   30 1
   4    2    3 ar
   5    2   31 1
   6    3    4 ar
   7    3   32 1
   8    4    5 ar
   9    4    7 1
  10    5    6 ar
  11    5   10 1
  12    6   33 1
  13    7    8 1
  14    7   15 1
  15    8    9 2
  16    8   34 1
  17    9   10 1
  18    9   11 1
  19   10   13 2
  20   11   12 am
  21   11   14 2
  22   12   13 1
  23   12   27 am
  24   15   16 1
  25   15   35 1
  26   15   36 1
  27   16   17 ar
  28   16   21 ar
  29   17   18 ar
  30   17   37 1
  31   18   19 ar
  32   18   38 1
  33   19   20 ar
  34   19   22 1
  35   20   21 ar
  36   20   39 1
  37   21   40 1
  38   22   23 1
  39   22   26 1
  40   23   24 2
  41   23   41 1
  42   24   25 1
  43   24   42 1
  44   25   26 2
  45   25   43 1
  46   27   28 2
  47   27   29 1
  48   29   44 1
  49   29   45 1
  50   29   46 1

#	End of record

