#	Name: ASD03331709
#	Creating user name:	WinNT
#	Creation time:	15. 06. 2019 20:39

#	Modifying user name:	WinNT
#	Modification time:	15. 06. 2019 20:39

#	Program:	/corina/corina34_cracker 3.40 0067  02.08.2006

@<TRIPOS>MOLECULE
ASD03331709
  63   66    0    0    0
SMALL
NO_CHARGES


@<TRIPOS>ATOM
   1 C1             0.3012     1.0307     0.0421 C.ar    
   2 C2             0.3627    -0.3317    -0.0282 C.ar    
   3 C3             1.5880    -0.9802    -0.1290 C.ar    
   4 C4             2.7620    -0.2611    -0.1599 C.ar    
   5 C5             1.4818     1.7838     0.0121 C.ar    
   6 C6             1.7506     3.1730     0.0646 C.2     
   7 C7             2.7247     1.1285    -0.0900 C.ar    
   8 N8             3.7006     2.0975    -0.0980 N.pl3   
   9 C9             3.0976     3.3368    -0.0040 C.2     
  10 C10            3.8015     4.6278     0.0185 C.2     
  11 N11            5.1468     4.6632    -0.0562 N.am    
  12 O12            3.1696     5.6637     0.1045 O.2     
  13 C13            5.8480     5.9493    -0.0338 C.3     
  14 C14            7.3560     5.7097    -0.1311 C.3     
  15 C15            8.0774     7.0326    -0.1081 C.ar    
  16 C16            8.9933     8.9092    -1.2805 C.ar    
  17 C17            8.3339     7.6979    -1.2941 C.ar    
  18 C18            8.4750     7.5793     1.0995 C.ar    
  19 C19            9.1352     8.7899     1.1280 C.ar    
  20 C20            9.4022     9.4643    -0.0657 C.ar    
  21 C21            0.7262     4.2727     0.1761 C.3     
  22 C22            0.4608     4.5748     1.6523 C.3     
  23 C23           10.1095    10.7613    -0.0431 C.2     
  24 O24            9.9869    11.5366    -0.9711 O.2     
  25 C25           10.9657    11.1159     1.1076 C.ar    
  26 C26           11.4936    10.1135     1.9246 C.ar    
  27 C27           12.2920    10.4518     2.9971 C.ar    
  28 C28           12.5705    11.7807     3.2646 C.ar    
  29 C29           12.0505    12.7790     2.4596 C.ar    
  30 C30           11.2556    12.4549     1.3801 C.ar    
  31 Cl31          -1.1024    -1.2621     0.0092 Cl      
  32 C32           -0.5792     5.6912     1.7654 C.3     
  33 C33           -0.8445     5.9933     3.2416 C.3     
  34 C34           -1.8846     7.1098     3.3548 C.3     
  35 H35           -0.6555     1.5264     0.1162 H       
  36 H36            1.6197    -2.0583    -0.1834 H       
  37 H37            3.7092    -0.7741    -0.2377 H       
  38 H38            4.6553     1.9371    -0.1589 H       
  39 H39            5.6506     3.8372    -0.1249 H       
  40 H40            5.5213     6.5560    -0.8784 H       
  41 H41            5.6222     6.4701     0.8967 H       
  42 H42            7.6827     5.1029     0.7134 H       
  43 H43            7.5818     5.1889    -1.0616 H       
  44 H44            9.1932     9.4272    -2.2068 H       
  45 H45            8.0175     7.2674    -2.2327 H       
  46 H46            8.2676     7.0568     2.0217 H       
  47 H47            9.4447     9.2155     2.0711 H       
  48 H48            1.1011     5.1697    -0.3167 H       
  49 H49           -0.2005     3.9558    -0.3023 H       
  50 H50            0.0860     3.6777     2.1450 H       
  51 H51            1.3876     4.8917     2.1306 H       
  52 H52           11.2767     9.0760     1.7172 H       
  53 H53           12.7006     9.6777     3.6299 H       
  54 H54           13.1964    12.0399     4.1058 H       
  55 H55           12.2716    13.8141     2.6744 H       
  56 H56           10.8547    13.2347     0.7496 H       
  57 H57           -0.2043     6.5883     1.2727 H       
  58 H58           -1.5059     5.3743     1.2871 H       
  59 H59           -1.2194     5.0962     3.7344 H       
  60 H60            0.0822     6.3102     3.7200 H       
  61 H61           -2.8113     6.7929     2.8765 H       
  62 H62           -2.0736     7.3250     4.4065 H       
  63 H63           -1.5097     8.0068     2.8620 H       
@<TRIPOS>BOND
   1    1    2 ar
   2    1    5 ar
   3    1   35 1
   4    2    3 ar
   5    2   31 1
   6    3    4 ar
   7    3   36 1
   8    4    7 ar
   9    4   37 1
  10    5    7 ar
  11    5    6 1
  12    6    9 2
  13    6   21 1
  14    7    8 1
  15    8    9 1
  16    8   38 1
  17    9   10 1
  18   10   11 am
  19   10   12 2
  20   11   13 1
  21   11   39 1
  22   13   14 1
  23   13   40 1
  24   13   41 1
  25   14   15 1
  26   14   42 1
  27   14   43 1
  28   15   18 ar
  29   15   17 ar
  30   16   17 ar
  31   16   20 ar
  32   16   44 1
  33   17   45 1
  34   18   19 ar
  35   18   46 1
  36   19   20 ar
  37   19   47 1
  38   20   23 1
  39   21   22 1
  40   21   48 1
  41   21   49 1
  42   22   32 1
  43   22   50 1
  44   22   51 1
  45   23   24 2
  46   23   25 1
  47   25   26 ar
  48   25   30 ar
  49   26   27 ar
  50   26   52 1
  51   27   28 ar
  52   27   53 1
  53   28   29 ar
  54   28   54 1
  55   29   30 ar
  56   29   55 1
  57   30   56 1
  58   32   33 1
  59   32   57 1
  60   32   58 1
  61   33   34 1
  62   33   59 1
  63   33   60 1
  64   34   61 1
  65   34   62 1
  66   34   63 1

#	End of record

