#	Name: ASD06170050
#	Creating user name:	WinNT
#	Creation time:	15. 06. 2019 21:05

#	Modifying user name:	WinNT
#	Modification time:	15. 06. 2019 21:05

#	Program:	/corina/corina34_cracker 3.40 0067  02.08.2006

@<TRIPOS>MOLECULE
ASD06170050
  74   78    0    0    0
SMALL
NO_CHARGES


@<TRIPOS>ATOM
   1 N1             0.0606     1.1953    -0.6215 N.pl3   
   2 N2             0.0463    -0.1933    -0.4599 N.am    
   3 C3             1.2836    -0.5971    -0.1045 C.2     
   4 C4             2.1168     0.6142    -0.0416 C.2     
   5 C5             1.2944     1.6736    -0.3718 C.2     
   6 C6             3.5417     0.6831     0.3042 C.2     
   7 O7             4.1130     1.7574     0.3188 O.2     
   8 N8             4.2172    -0.4436     0.6055 N.am    
   9 C9            -1.0646    -1.0245    -0.6366 C.ar    
  10 C10           -1.9069    -0.8385    -1.7251 C.ar    
  11 C11           -3.0027    -1.6613    -1.8969 C.ar    
  12 C12           -3.2617    -2.6695    -0.9866 C.ar    
  13 C13           -2.4253    -2.8571     0.0985 C.ar    
  14 C14           -1.3246    -2.0414     0.2730 C.ar    
  15 O15            1.6404    -1.7386     0.1203 O.2     
  16 C16            1.7084     3.1209    -0.4416 C.3     
  17 C17           -1.0940     2.0087    -1.0108 C.3     
  18 C18           -1.7276     2.6256     0.2378 C.3     
  19 C19           -3.0043     3.3722    -0.1540 C.3     
  20 C20           -2.0705     1.5179     1.2360 C.3     
  21 O21           -0.8066     3.5390     0.8375 O.3     
  22 C22            5.6061    -0.4019     0.7792 C.ar    
  23 C23            6.2181     0.7702     1.2043 C.ar    
  24 C24            7.5891     0.8103     1.3754 C.ar    
  25 C25            8.3539    -0.3221     1.1219 C.ar    
  26 C26            7.7419    -1.4914     0.6972 C.ar    
  27 C27            6.3710    -1.5339     0.5320 C.ar    
  28 F28            8.1855     1.9501     1.7884 F       
  29 O29            9.7029    -0.2831     1.2901 O.3     
  30 N30           11.1505    -0.2304     5.1518 N.ar    
  31 C31            9.8585    -0.1669     4.9303 C.ar    
  32 C32            9.3342    -0.1819     3.6441 C.ar    
  33 C33           10.1861    -0.2660     2.5568 C.ar    
  34 C34           11.5752    -0.3339     2.8072 C.ar    
  35 C35           12.5007    -0.4203     1.7565 C.ar    
  36 C36           13.8354    -0.4838     2.0354 C.ar    
  37 C37           14.2904    -0.4635     3.3615 C.ar    
  38 C38           13.4113    -0.3804     4.4026 C.ar    
  39 C39           12.0316    -0.3132     4.1477 C.ar    
  40 O40           15.6241    -0.5278     3.6137 O.3     
  41 C41           16.0271    -0.5030     4.9845 C.3     
  42 O42           14.7326    -0.5680     1.0171 O.3     
  43 C43           14.2064    -0.5850    -0.3114 C.3     
  44 H44            3.7414    -1.2833     0.7020 H       
  45 H45           -1.7054    -0.0510    -2.4362 H       
  46 H46           -3.6583    -1.5169    -2.7430 H       
  47 H47           -4.1193    -3.3116    -1.1233 H       
  48 H48           -2.6306    -3.6452     0.8078 H       
  49 H49           -0.6692    -2.1913     1.1182 H       
  50 H50            1.5620     3.5881     0.5323 H       
  51 H51            2.7601     3.1850    -0.7208 H       
  52 H52            1.1026     3.6366    -1.1867 H       
  53 H53           -0.7689     2.8026    -1.6833 H       
  54 H54           -1.8267     1.3806    -1.5175 H       
  55 H55           -3.7067     2.6755    -0.6115 H       
  56 H56           -3.4556     3.8117     0.7355 H       
  57 H57           -2.7600     4.1613    -0.8651 H       
  58 H58           -1.1609     0.9860     1.5151 H       
  59 H59           -2.5218     1.9574     2.1255 H       
  60 H60           -2.7729     0.8213     0.7785 H       
  61 H61           -0.5444     4.2691     0.2602 H       
  62 H62            5.6231     1.6499     1.4007 H       
  63 H63            8.3368    -2.3709     0.4997 H       
  64 H64            5.8946    -2.4467     0.2060 H       
  65 H65            9.1843    -0.1010     5.7714 H       
  66 H66            8.2661    -0.1289     3.4932 H       
  67 H67           12.1589    -0.4369     0.7321 H       
  68 H68           13.7756    -0.3656     5.4192 H       
  69 H69           15.6859     0.4232     5.4469 H       
  70 H70           15.5888    -1.3531     5.5074 H       
  71 H71           17.1139    -0.5604     5.0448 H       
  72 H72           13.6443     0.3314    -0.4914 H       
  73 H73           15.0264    -0.6546    -1.0261 H       
  74 H74           13.5471    -1.4449    -0.4301 H       
@<TRIPOS>BOND
   1    1    2 1
   2    1    5 1
   3    1   17 1
   4    2    3 am
   5    2    9 1
   6    3    4 1
   7    3   15 2
   8    4    5 2
   9    4    6 1
  10    5   16 1
  11    6    7 2
  12    6    8 am
  13    8   22 1
  14    8   44 1
  15    9   10 ar
  16    9   14 ar
  17   10   11 ar
  18   10   45 1
  19   11   12 ar
  20   11   46 1
  21   12   13 ar
  22   12   47 1
  23   13   14 ar
  24   13   48 1
  25   14   49 1
  26   16   50 1
  27   16   51 1
  28   16   52 1
  29   17   18 1
  30   17   53 1
  31   17   54 1
  32   18   19 1
  33   18   20 1
  34   18   21 1
  35   19   55 1
  36   19   56 1
  37   19   57 1
  38   20   58 1
  39   20   59 1
  40   20   60 1
  41   21   61 1
  42   22   23 ar
  43   22   27 ar
  44   23   24 ar
  45   23   62 1
  46   24   25 ar
  47   24   28 1
  48   25   26 ar
  49   25   29 1
  50   26   27 ar
  51   26   63 1
  52   27   64 1
  53   29   33 1
  54   30   31 ar
  55   30   39 ar
  56   31   32 ar
  57   31   65 1
  58   32   33 ar
  59   32   66 1
  60   33   34 ar
  61   34   35 ar
  62   34   39 ar
  63   35   36 ar
  64   35   67 1
  65   36   37 ar
  66   36   42 1
  67   37   38 ar
  68   37   40 1
  69   38   39 ar
  70   38   68 1
  71   40   41 1
  72   41   69 1
  73   41   70 1
  74   41   71 1
  75   42   43 1
  76   43   72 1
  77   43   73 1
  78   43   74 1

#	End of record

