#	Name: ASD01840094
#	Creating user name:	WinNT
#	Creation time:	15. 06. 2019 19:37

#	Modifying user name:	WinNT
#	Modification time:	15. 06. 2019 19:37

#	Program:	/corina/corina34_cracker 3.40 0067  02.08.2006

@<TRIPOS>MOLECULE
ASD01840094
  49   52    0    0    0
SMALL
NO_CHARGES


@<TRIPOS>ATOM
   1 C1             0.0268     1.3102     0.1300 C.ar    
   2 N2             0.3648     0.4839     1.1088 N.ar    
   3 C3             1.5207    -0.1549     1.0961 C.ar    
   4 N4             2.3901    -0.0084     0.1232 N.ar    
   5 C5             0.9299     1.5051    -0.9463 C.ar    
   6 C6             0.8186     2.3369    -2.1297 C.2     
   7 C7             2.1389     0.8049    -0.9104 C.ar    
   8 S8             3.0908     1.1982    -2.3345 S.3     
   9 C9             1.8560     2.2847    -2.9424 C.2     
  10 C10           -0.3891     3.1939    -2.4089 C.3     
  11 C11            1.9661     3.0603    -4.2298 C.3     
  12 N12           -1.1898     1.9680     0.1542 N.3     
  13 C13           -2.3043     1.0172     0.0518 C.3     
  14 C14           -3.6228     1.7853    -0.0647 C.3     
  15 C15           -3.7993     2.6765     1.1679 C.3     
  16 C16           -2.6018     3.6242     1.2785 C.3     
  17 C17           -1.3128     2.8028     1.3560 C.3     
  18 C18           -5.0667     3.4802     1.0308 C.2     
  19 O19           -5.0247     4.6073     0.5849 O.2     
  20 N20           -6.2467     2.9466     1.4038 N.am    
  21 C21           -7.3500     0.7758     1.3098 C.3     
  22 C22           -6.3105     1.6258     2.0494 C.3     
  23 C23           -7.5089     3.6702     1.1831 C.3     
  24 C24           -8.4924     2.7248     0.4839 C.3     
  25 O25           -8.5808     1.5055     1.2251 O.3     
  26 H26            1.7589    -0.8196     1.9133 H       
  27 H27           -0.2837     4.1490    -1.8944 H       
  28 H28           -0.4719     3.3665    -3.4820 H       
  29 H29           -1.2853     2.6861    -2.0524 H       
  30 H30            2.4293     4.0272    -4.0331 H       
  31 H31            2.5774     2.5022    -4.9390 H       
  32 H32            0.9714     3.2124    -4.6486 H       
  33 H33           -2.1687     0.3924    -0.8310 H       
  34 H34           -2.3278     0.3881     0.9417 H       
  35 H35           -3.6054     2.4042    -0.9618 H       
  36 H36           -4.4511     1.0793    -0.1249 H       
  37 H37           -3.8558     2.0551     2.0616 H       
  38 H38           -2.5683     4.2720     0.4025 H       
  39 H39           -2.7006     4.2321     2.1778 H       
  40 H40           -1.3411     2.1653     2.2397 H       
  41 H41           -0.4572     3.4749     1.4205 H       
  42 H42           -6.9901     0.5531     0.3053 H       
  43 H43           -7.5130    -0.1547     1.8536 H       
  44 H44           -5.3350     1.1427     1.9943 H       
  45 H45           -6.6054     1.7408     3.0924 H       
  46 H46           -7.9223     3.9876     2.1404 H       
  47 H47           -7.3272     4.5417     0.5541 H       
  48 H48           -9.4754     3.1932     0.4350 H       
  49 H49           -8.1386     2.5126    -0.5250 H       
@<TRIPOS>BOND
   1    1    2 ar
   2    1    5 ar
   3    1   12 1
   4    2    3 ar
   5    3    4 ar
   6    3   26 1
   7    4    7 ar
   8    5    7 ar
   9    5    6 1
  10    6    9 2
  11    6   10 1
  12    7    8 1
  13    8    9 1
  14    9   11 1
  15   10   27 1
  16   10   28 1
  17   10   29 1
  18   11   30 1
  19   11   31 1
  20   11   32 1
  21   12   13 1
  22   12   17 1
  23   13   14 1
  24   13   33 1
  25   13   34 1
  26   14   15 1
  27   14   35 1
  28   14   36 1
  29   15   16 1
  30   15   18 1
  31   15   37 1
  32   16   17 1
  33   16   38 1
  34   16   39 1
  35   17   40 1
  36   17   41 1
  37   18   19 2
  38   18   20 am
  39   20   23 1
  40   20   22 1
  41   21   22 1
  42   21   25 1
  43   21   42 1
  44   21   43 1
  45   22   44 1
  46   22   45 1
  47   23   24 1
  48   23   46 1
  49   23   47 1
  50   24   25 1
  51   24   48 1
  52   24   49 1

#	End of record

