#	Name: ASD07930724
#	Creating user name:	WinNT
#	Creation time:	15. 06. 2019 21:13

#	Modifying user name:	WinNT
#	Modification time:	15. 06. 2019 21:13

#	Program:	/corina/corina34_cracker 3.40 0067  02.08.2006

@<TRIPOS>MOLECULE
ASD07930724
  40   42    0    0    0
SMALL
NO_CHARGES


@<TRIPOS>ATOM
   1 C1             0.0008     1.4607     0.0160 C.3     
   2 N2             2.1735    -0.4262     0.8092 N.2     
   3 N3             1.3150    -1.7617    -0.9056 N.pl3   
   4 C4             0.2855    -2.8052    -0.9532 C.3     
   5 C5            -1.0742    -2.1611    -1.2568 C.3     
   6 N6             0.0127    -0.0042     0.0055 N.am    
   7 C7             1.1998    -0.7227    -0.0050 C.2     
   8 C8             0.2213    -3.5216     0.3972 C.3     
   9 C9             0.6249    -3.7980    -2.0349 C.ar    
  10 C10            1.7050    -3.5722    -2.8629 C.ar    
  11 C11            2.0179    -4.4910    -3.8629 C.ar    
  12 C12            1.2376    -5.6343    -4.0219 C.ar    
  13 C13            0.1589    -5.8523    -3.1893 C.ar    
  14 C14           -0.1451    -4.9392    -2.1929 C.ar    
  15 F15           -1.2018    -5.1567    -1.3796 F       
  16 C16            3.1785    -4.2522    -4.7562 C.ar    
  17 C17            3.5077    -5.1617    -5.7642 C.ar    
  18 C18            3.9687    -3.1086    -4.6161 C.ar    
  19 N19            4.9934    -2.9348    -5.4330 N.ar    
  20 C20            5.2728    -3.8211    -6.3680 C.ar    
  21 N21            4.5498    -4.9103    -6.5377 N.ar    
  22 S22           -1.3987    -0.8899     0.0054 S.o2    
  23 O23           -2.3930     0.0219    -0.4410 O.2     
  24 O24           -1.4571    -1.4696     1.3015 O.2     
  25 H25            1.0255     1.8324     0.0141 H       
  26 H26           -0.5199     1.8262    -0.8691 H       
  27 H27           -0.5119     1.8135     0.9108 H       
  28 H28            2.0751     0.3074     1.4362 H       
  29 H29            2.0777    -1.8041    -1.5035 H       
  30 H30           -1.0503    -1.7005    -2.2445 H       
  31 H31           -1.8560    -2.9199    -1.2235 H       
  32 H32           -0.0262    -2.8028     1.1784 H       
  33 H33           -0.5440    -4.2969     0.3612 H       
  34 H34            1.1884    -3.9753     0.6141 H       
  35 H35            2.3070    -2.6845    -2.7364 H       
  36 H36            1.4764    -6.3487    -4.7959 H       
  37 H37           -0.4464    -6.7383    -3.3119 H       
  38 H38            2.9202    -6.0564    -5.9090 H       
  39 H39            3.7458    -2.3779    -3.8526 H       
  40 H40            6.1176    -3.6472    -7.0181 H       
@<TRIPOS>BOND
   1    1    6 1
   2    1   25 1
   3    1   26 1
   4    1   27 1
   5    2    7 2
   6    2   28 1
   7    3    4 1
   8    3    7 1
   9    3   29 1
  10    4    5 1
  11    4    8 1
  12    4    9 1
  13    5   22 1
  14    5   30 1
  15    5   31 1
  16    6    7 1
  17    6   22 am
  18    8   32 1
  19    8   33 1
  20    8   34 1
  21    9   10 ar
  22    9   14 ar
  23   10   11 ar
  24   10   35 1
  25   11   12 ar
  26   11   16 1
  27   12   13 ar
  28   12   36 1
  29   13   14 ar
  30   13   37 1
  31   14   15 1
  32   16   17 ar
  33   16   18 ar
  34   17   21 ar
  35   17   38 1
  36   18   19 ar
  37   18   39 1
  38   19   20 ar
  39   20   21 ar
  40   20   40 1
  41   22   23 2
  42   22   24 2

#	End of record

