#	Name: ASD01812847
#	Creating user name:	WinNT
#	Creation time:	15. 06. 2019 19:29

#	Modifying user name:	WinNT
#	Modification time:	15. 06. 2019 19:29

#	Program:	/corina/corina34_cracker 3.40 0067  02.08.2006

@<TRIPOS>MOLECULE
ASD01812847
  50   54    0    0    0
SMALL
NO_CHARGES


@<TRIPOS>ATOM
   1 N1             0.0029     1.3163    -0.2237 N.ar    
   2 C2             0.0322     0.0050    -0.3450 C.ar    
   3 N3             1.1650    -0.6757    -0.3646 N.ar    
   4 C4             2.3229    -0.0581    -0.2620 C.ar    
   5 C5             2.3511     1.3333    -0.1311 C.ar    
   6 C6             1.1253     2.0202    -0.1145 C.ar    
   7 C7             3.7591    -0.5135    -0.2488 C.3     
   8 N8             4.5727     0.6999    -0.1040 N.am    
   9 C9             3.7523     1.7638    -0.0365 C.2     
  10 C10            6.0358     0.7446    -0.0431 C.3     
  11 C11            6.5923     0.8919    -1.4358 C.ar    
  12 C12            6.8057     2.1528    -1.9628 C.ar    
  13 C13            7.3156     2.2935    -3.2377 C.ar    
  14 C14            7.6154     1.1624    -3.9939 C.ar    
  15 C15            7.3985    -0.1053    -3.4582 C.ar    
  16 C16            6.8931    -0.2344    -2.1803 C.ar    
  17 O17            1.0883     3.3668     0.0093 O.3     
  18 O18            4.1184     2.9170     0.0847 O.2     
  19 C19           -0.1190     3.9825    -0.0808 C.ar    
  20 C20           -0.9203     4.1075     1.0498 C.ar    
  21 C21           -2.1469     4.7323     0.9615 C.ar    
  22 C22           -2.5831     5.2393    -0.2654 C.ar    
  23 C23           -1.7743     5.1110    -1.3978 C.ar    
  24 C24           -0.5480     4.4908    -1.3003 C.ar    
  25 C25           -3.8560     5.8883    -0.3623 C.1     
  26 F26           -0.4968     3.6162     2.2349 F       
  27 N27            8.4131     2.4424    -5.9838 N.2     
  28 C28            8.1635     1.3075    -5.3656 C.2     
  29 C29            8.5084     0.2550    -6.2357 C.2     
  30 C30            8.9679     0.8000    -7.3831 C.2     
  31 N31            8.9199     2.1435    -7.2549 N.pl3   
  32 C32            9.3266     3.1190    -8.2694 C.3     
  33 N33           -4.8657     6.4031    -0.4391 N.1     
  34 H34           -0.9008    -0.5321    -0.4309 H       
  35 H35            3.9320    -1.1833     0.5935 H       
  36 H36            4.0010    -1.0173    -1.1846 H       
  37 H37            6.3483     1.5937     0.5647 H       
  38 H38            6.4093    -0.1777     0.4018 H       
  39 H39            6.5725     3.0289    -1.3758 H       
  40 H40            7.4815     3.2785    -3.6483 H       
  41 H41            7.6292    -0.9853    -4.0402 H       
  42 H42            6.7284    -1.2166    -1.7625 H       
  43 H43           -2.7691     4.8290     1.8389 H       
  44 H44           -2.1085     5.5014    -2.3477 H       
  45 H45            0.0791     4.3959    -2.1744 H       
  46 H46            8.4216    -0.8003    -6.0230 H       
  47 H47            9.3130     0.2569    -8.2505 H       
  48 H48           10.3820     3.3589    -8.1403 H       
  49 H49            9.1685     2.6979    -9.2623 H       
  50 H50            8.7318     4.0259    -8.1604 H       
@<TRIPOS>BOND
   1    1    2 ar
   2    1    6 ar
   3    2    3 ar
   4    2   34 1
   5    3    4 ar
   6    4    7 1
   7    4    5 ar
   8    5    6 ar
   9    5    9 1
  10    6   17 1
  11    7    8 1
  12    7   35 1
  13    7   36 1
  14    8    9 am
  15    8   10 1
  16    9   18 2
  17   10   11 1
  18   10   37 1
  19   10   38 1
  20   11   12 ar
  21   11   16 ar
  22   12   13 ar
  23   12   39 1
  24   13   14 ar
  25   13   40 1
  26   14   15 ar
  27   14   28 1
  28   15   16 ar
  29   15   41 1
  30   16   42 1
  31   17   19 1
  32   19   20 ar
  33   19   24 ar
  34   20   21 ar
  35   20   26 1
  36   21   22 ar
  37   21   43 1
  38   22   23 ar
  39   22   25 1
  40   23   24 ar
  41   23   44 1
  42   24   45 1
  43   25   33 3
  44   27   28 2
  45   27   31 1
  46   28   29 1
  47   29   30 2
  48   29   46 1
  49   30   31 1
  50   30   47 1
  51   31   32 1
  52   32   48 1
  53   32   49 1
  54   32   50 1

#	End of record

