#	Name: ASD02408364
#	Creating user name:	WinNT
#	Creation time:	15. 06. 2019 20:21

#	Modifying user name:	WinNT
#	Modification time:	15. 06. 2019 20:21

#	Program:	/corina/corina34_cracker 3.40 0067  02.08.2006

@<TRIPOS>MOLECULE
ASD02408364
  61   65    0    0    0
SMALL
NO_CHARGES


@<TRIPOS>ATOM
   1 C1             0.0067     1.5062     0.1347 C.2     
   2 C2             0.0730     0.1660    -0.0933 C.2     
   3 N3            -1.0539    -0.5634    -0.2626 N.pl3   
   4 N4            -2.2315    -0.0590    -0.2217 N.2     
   5 C5            -2.4381     1.2243    -0.0090 C.2     
   6 C6            -1.2791     2.1042     0.1930 C.2     
   7 C7            -0.9273    -1.9374    -0.4945 C.ar    
   8 C8            -1.5146    -2.5107    -1.6184 C.ar    
   9 C9            -1.3884    -3.8679    -1.8465 C.ar    
  10 C10           -0.6757    -4.6584    -0.9539 C.ar    
  11 C11           -0.0900    -4.0849     0.1686 C.ar    
  12 C12           -0.2105    -2.7290     0.3943 C.ar    
  13 C13           -3.8109     1.7682     0.0311 C.2     
  14 N14           -4.3720     2.4816     1.0527 N.pl3   
  15 N15           -5.6836     2.8010     0.6799 N.2     
  16 C16           -5.9148     2.3080    -0.5106 C.2     
  17 C17           -4.7646     1.6569    -0.9567 C.2     
  18 C18           -3.7473     2.8309     2.2567 C.ar    
  19 C19           -3.9161     4.1042     2.7844 C.ar    
  20 C20           -3.2987     4.4455     3.9718 C.ar    
  21 C21           -2.5132     3.5207     4.6351 C.ar    
  22 C22           -2.3432     2.2519     4.1122 C.ar    
  23 C23           -2.9625     1.9026     2.9281 C.ar    
  24 O24           -1.4160     3.3024     0.3940 O.2     
  25 O25            1.1346     2.2465     0.3064 O.3     
  26 C26            2.3824     1.5536     0.2363 C.3     
  27 F27           -2.2079    -1.7411    -2.4857 F       
  28 N28           -0.5480    -6.0302    -1.1842 N.3     
  29 C29            0.2399    -6.6708    -0.1234 C.3     
  30 C30            0.4821    -8.1388    -0.4817 C.3     
  31 C31           -0.8650    -8.8488    -0.6423 C.3     
  32 C32           -1.6853    -8.1328    -1.7189 C.3     
  33 C33           -1.8647    -6.6650    -1.3246 C.3     
  34 C34           -0.6304   -10.3019    -1.0602 C.3     
  35 O35           -1.5731    -8.8159     0.5984 O.3     
  36 H36            1.0360    -0.3207    -0.1398 H       
  37 H37           -1.8440    -4.3139    -2.7182 H       
  38 H38            0.4634    -4.7003     0.8625 H       
  39 H39            0.2453    -2.2844     1.2665 H       
  40 H40           -6.8414     2.3946    -1.0586 H       
  41 H41           -4.6453     1.1511    -1.9035 H       
  42 H42           -4.5292     4.8270     2.2666 H       
  43 H43           -3.4293     5.4358     4.3825 H       
  44 H44           -2.0312     3.7901     5.5632 H       
  45 H45           -1.7288     1.5320     4.6324 H       
  46 H46           -2.8293     0.9115     2.5203 H       
  47 H47            2.4845     1.0873    -0.7436 H       
  48 H48            3.1989     2.2591     0.3898 H       
  49 H49            2.4155     0.7858     1.0093 H       
  50 H50            1.1969    -6.1589    -0.0223 H       
  51 H51           -0.3045    -6.6121     0.8192 H       
  52 H52            1.0385    -8.1980    -1.4172 H       
  53 H53            1.0535    -8.6179     0.3132 H       
  54 H54           -1.1630    -8.1920    -2.6738 H       
  55 H55           -2.6624    -8.6078    -1.8078 H       
  56 H56           -2.3992    -6.6064    -0.3765 H       
  57 H57           -2.4362    -6.1490    -2.0961 H       
  58 H58           -0.0416   -10.8092    -0.2960 H       
  59 H59           -1.5898   -10.8065    -1.1743 H       
  60 H60           -0.0927   -10.3250    -2.0081 H       
  61 H61           -2.4374    -9.2487     0.5697 H       
@<TRIPOS>BOND
   1    1    2 2
   2    1   25 1
   3    1    6 1
   4    2    3 1
   5    2   36 1
   6    3    4 1
   7    3    7 1
   8    4    5 2
   9    5    6 1
  10    5   13 1
  11    6   24 2
  12    7    8 ar
  13    7   12 ar
  14    8    9 ar
  15    8   27 1
  16    9   10 ar
  17    9   37 1
  18   10   11 ar
  19   10   28 1
  20   11   12 ar
  21   11   38 1
  22   12   39 1
  23   13   14 1
  24   13   17 2
  25   14   15 1
  26   14   18 1
  27   15   16 2
  28   16   17 1
  29   16   40 1
  30   17   41 1
  31   18   19 ar
  32   18   23 ar
  33   19   20 ar
  34   19   42 1
  35   20   21 ar
  36   20   43 1
  37   21   22 ar
  38   21   44 1
  39   22   23 ar
  40   22   45 1
  41   23   46 1
  42   25   26 1
  43   26   47 1
  44   26   48 1
  45   26   49 1
  46   28   29 1
  47   28   33 1
  48   29   30 1
  49   29   50 1
  50   29   51 1
  51   30   31 1
  52   30   52 1
  53   30   53 1
  54   31   32 1
  55   31   34 1
  56   31   35 1
  57   32   33 1
  58   32   54 1
  59   32   55 1
  60   33   56 1
  61   33   57 1
  62   34   58 1
  63   34   59 1
  64   34   60 1
  65   35   61 1

#	End of record

