#	Name: ASD01900980
#	Creating user name:	WinNT
#	Creation time:	15. 06. 2019 19:52

#	Modifying user name:	WinNT
#	Modification time:	15. 06. 2019 19:52

#	Program:	/corina/corina34_cracker 3.40 0067  02.08.2006

@<TRIPOS>MOLECULE
ASD01900980
  64   68    0    0    0
SMALL
NO_CHARGES


@<TRIPOS>ATOM
   1 C1             0.0959     1.4915    -1.2862 C.ar    
   2 C2             0.0409     0.1157    -1.2830 C.ar    
   3 C3             1.0366    -0.6301    -0.6451 C.ar    
   4 C4             2.0907     0.0166    -0.0014 C.ar    
   5 C5             2.1467     1.3997     0.0001 C.ar    
   6 C6             1.1510     2.1468    -0.6514 C.ar    
   7 N7             3.1741     2.0796     0.6509 N.pl3   
   8 C8             3.5181     3.4256     0.1876 C.3     
   9 N9             2.3510     4.2230    -0.1817 N.am    
  10 C10            1.2361     3.6204    -0.6477 C.2     
  11 C11            2.3880     5.6166    -0.0506 C.ar    
  12 C12            2.8759     6.3993    -1.0888 C.ar    
  13 C13            2.9117     7.7735    -0.9591 C.ar    
  14 C14            2.4608     8.3723     0.2083 C.ar    
  15 C15            1.9737     7.5911     1.2460 C.ar    
  16 C16            1.9316     6.2171     1.1153 C.ar    
  17 O17            0.3083     4.2876    -1.0630 O.2     
  18 O18            2.4968     9.7256     0.3355 O.3     
  19 C19            4.4960     4.1592     1.1161 C.3     
  20 C20            2.0168    10.2746     1.5644 C.3     
  21 N21            5.1735     4.6081    -0.1212 N.3     
  22 C22            4.6365     3.4447    -0.8630 C.3     
  23 C23            6.6333     4.5172     0.0153 C.3     
  24 C24            7.2833     4.8636    -1.2994 C.ar    
  25 C25            8.3816     4.1471    -1.7369 C.ar    
  26 C26            8.9783     4.4636    -2.9426 C.ar    
  27 C27            8.4755     5.4987    -3.7125 C.ar    
  28 C28            7.3754     6.2157    -3.2734 C.ar    
  29 C29            6.7773     5.8940    -2.0698 C.ar    
  30 C30            7.1067     5.4959     1.0918 C.3     
  31 F31            2.7788     9.7768     2.6267 F       
  32 F32            2.1250    11.6689     1.5260 F       
  33 F33            0.6765     9.9157     1.7435 F       
  34 C34            0.9712    -2.1081    -0.6527 C.2     
  35 O35           -0.0469    -2.7339    -1.2739 O.3     
  36 O36            1.8355    -2.7569    -0.0989 O.2     
  37 C37           -0.0466    -4.1856    -1.2411 C.3     
  38 C38           -1.2704    -4.7130    -1.9928 C.3     
  39 F39            9.0583     5.8093    -4.8912 F       
  40 H40           -0.6745     2.0624    -1.7832 H       
  41 H41           -0.7762    -0.3901    -1.7759 H       
  42 H42            2.8593    -0.5585     0.4937 H       
  43 H43            3.6494     1.6717     1.3916 H       
  44 H44            3.2277     5.9332    -1.9974 H       
  45 H45            3.2911     8.3823    -1.7664 H       
  46 H46            1.6235     8.0580     2.1548 H       
  47 H47            1.5482     5.6094     1.9216 H       
  48 H48            4.0385     4.9686     1.6852 H       
  49 H49            5.1009     3.4935     1.7318 H       
  50 H50            5.2830     2.5677    -0.8327 H       
  51 H51            4.2911     3.6858    -1.8683 H       
  52 H52            6.9090     3.5020     0.3006 H       
  53 H53            8.7738     3.3399    -1.1360 H       
  54 H54            9.8365     3.9039    -3.2840 H       
  55 H55            6.9825     7.0233    -3.8731 H       
  56 H56            5.9166     6.4504    -1.7290 H       
  57 H57            8.1899     5.4285     1.1931 H       
  58 H58            6.8310     6.5111     0.8065 H       
  59 H59            6.6366     5.2454     2.0428 H       
  60 H60            0.8605    -4.5595    -1.7160 H       
  61 H61           -0.0815    -4.5256    -0.2061 H       
  62 H62           -1.2354    -4.3729    -3.0278 H       
  63 H63           -1.2701    -5.8027    -1.9682 H       
  64 H64           -2.1774    -4.3390    -1.5179 H       
@<TRIPOS>BOND
   1    1    2 ar
   2    1    6 ar
   3    1   40 1
   4    2    3 ar
   5    2   41 1
   6    3    4 ar
   7    3   34 1
   8    4    5 ar
   9    4   42 1
  10    5    7 1
  11    5    6 ar
  12    6   10 1
  13    7    8 1
  14    7   43 1
  15    8    9 1
  16    8   19 1
  17    8   22 1
  18    9   10 am
  19    9   11 1
  20   10   17 2
  21   11   12 ar
  22   11   16 ar
  23   12   13 ar
  24   12   44 1
  25   13   14 ar
  26   13   45 1
  27   14   15 ar
  28   14   18 1
  29   15   16 ar
  30   15   46 1
  31   16   47 1
  32   18   20 1
  33   19   21 1
  34   19   48 1
  35   19   49 1
  36   20   31 1
  37   20   32 1
  38   20   33 1
  39   21   23 1
  40   21   22 1
  41   22   50 1
  42   22   51 1
  43   23   24 1
  44   23   30 1
  45   23   52 1
  46   24   25 ar
  47   24   29 ar
  48   25   26 ar
  49   25   53 1
  50   26   27 ar
  51   26   54 1
  52   27   28 ar
  53   27   39 1
  54   28   29 ar
  55   28   55 1
  56   29   56 1
  57   30   57 1
  58   30   58 1
  59   30   59 1
  60   34   35 1
  61   34   36 2
  62   35   37 1
  63   37   38 1
  64   37   60 1
  65   37   61 1
  66   38   62 1
  67   38   63 1
  68   38   64 1

#	End of record

