#	Name: ASD08170071
#	Creating user name:	WinNT
#	Creation time:	15. 06. 2019 21:17

#	Modifying user name:	WinNT
#	Modification time:	15. 06. 2019 21:17

#	Program:	/corina/corina34_cracker 3.40 0067  02.08.2006

@<TRIPOS>MOLECULE
ASD08170071
  70   75    0    0    0
SMALL
NO_CHARGES


@<TRIPOS>ATOM
   1 N1            -0.0150     1.2583     0.0090 N.2     
   2 N2             0.0021    -0.0041     0.0020 N.2     
   3 C3             1.1271     1.8769     0.0014 C.2     
   4 S4             2.3826     0.7116    -0.0169 S.3     
   5 C5             1.1681    -0.5677    -0.0121 C.2     
   6 C6             1.4387    -2.0502    -0.0227 C.3     
   7 C7             1.5165    -2.5442    -1.4687 C.3     
   8 C8             1.8690    -4.5432    -2.9254 C.3     
   9 C9             2.1395    -6.0257    -2.9359 C.2     
  10 N10            1.2478    -6.9651    -2.9329 N.2     
  11 S11            3.7275    -6.7933    -2.9623 S.3     
  12 C12            2.9647    -8.3272    -2.9581 C.2     
  13 N13            1.6777    -8.1521    -2.9433 N.2     
  14 N14            3.6154    -9.5562    -2.9730 N.am    
  15 C15            2.8993   -10.6980    -2.9678 C.2     
  16 O16            1.6874   -10.6536    -2.9501 O.2     
  17 C17            3.6044   -12.0297    -2.9839 C.3     
  18 N18            1.3017     3.2566     0.0067 N.am    
  19 C19            0.2284     4.0717     0.0214 C.2     
  20 C20            0.4176     5.5667     0.0272 C.3     
  21 O21           -0.8897     3.6019     0.0299 O.2     
  22 C22            1.7912    -4.0493    -1.4794 C.3     
  23 C23            4.4201   -12.2338    -1.6852 C.3     
  24 C24            1.0801     6.0404    -1.2882 C.3     
  25 C25            0.3876     7.3683    -1.5272 C.ar    
  26 C26           -0.7364     7.3935    -0.7122 C.ar    
  27 O27           -0.8519     6.2409     0.0048 O.3     
  28 O28            2.6558   -13.1089    -2.9369 O.3     
  29 C29            3.1867   -14.1436    -2.2273 C.ar    
  30 C30            4.2466   -13.7197    -1.4367 C.ar    
  31 C31            2.8197   -15.4868    -2.1996 C.ar    
  32 C32            3.4970   -16.3771    -1.3931 C.ar    
  33 C33            4.5503   -15.9427    -0.6018 C.ar    
  34 C34            4.9228   -14.6061    -0.6278 C.ar    
  35 C35            0.6880     8.4321    -2.3488 C.ar    
  36 C36           -0.1346     9.5497    -2.3636 C.ar    
  37 C37           -1.2565     9.5868    -1.5486 C.ar    
  38 C38           -1.5567     8.5189    -0.7293 C.ar    
  39 O39            5.2140   -16.8218     0.1956 O.3     
  40 O40            0.1577    10.6030    -3.1725 O.3     
  41 C41           -0.7350    11.7181    -3.1337 C.3     
  42 C42            4.7736   -18.1810     0.1700 C.3     
  43 H43            2.3843    -2.2506     0.4811 H       
  44 H44            0.6334    -2.5702     0.4961 H       
  45 H45            0.5709    -2.3438    -1.9724 H       
  46 H46            2.3218    -2.0242    -1.9874 H       
  47 H47            2.6743    -4.0232    -3.4441 H       
  48 H48            0.9234    -4.3429    -3.4291 H       
  49 H49            4.5846    -9.5917    -2.9871 H       
  50 H50            4.2466   -12.1144    -3.8605 H       
  51 H51            2.1959     3.6323    -0.0001 H       
  52 H52            1.0073     5.8765     0.8899 H       
  53 H53            2.7368    -4.2496    -0.9756 H       
  54 H54            0.9858    -4.5693    -0.9606 H       
  55 H55            5.4697   -11.9848    -1.8413 H       
  56 H56            4.0004   -11.6501    -0.8659 H       
  57 H57            2.1532     6.1789    -1.1560 H       
  58 H58            0.8759     5.3428    -2.1004 H       
  59 H59            2.0004   -15.8328    -2.8124 H       
  60 H60            3.2060   -17.4170    -1.3772 H       
  61 H61            5.7421   -14.2612    -0.0144 H       
  62 H62            1.5632     8.3968    -2.9806 H       
  63 H63           -1.8977    10.4558    -1.5558 H       
  64 H64           -2.4322     8.5554    -0.0979 H       
  65 H65           -1.7342    11.3939    -3.4247 H       
  66 H66           -0.7650    12.1246    -2.1228 H       
  67 H67           -0.3869    12.4864    -3.8241 H       
  68 H68            3.7308   -18.2310     0.4833 H       
  69 H69            4.8682   -18.5745    -0.8420 H       
  70 H70            5.3859   -18.7742     0.8492 H       
@<TRIPOS>BOND
   1    1    2 1
   2    1    3 2
   3    2    5 2
   4    3    4 1
   5    3   18 1
   6    4    5 1
   7    5    6 1
   8    6    7 1
   9    6   43 1
  10    6   44 1
  11    7   22 1
  12    7   45 1
  13    7   46 1
  14    8    9 1
  15    8   22 1
  16    8   47 1
  17    8   48 1
  18    9   10 2
  19    9   11 1
  20   10   13 1
  21   11   12 1
  22   12   13 2
  23   12   14 1
  24   14   15 am
  25   14   49 1
  26   15   16 2
  27   15   17 1
  28   17   23 1
  29   17   28 1
  30   17   50 1
  31   18   19 am
  32   18   51 1
  33   19   20 1
  34   19   21 2
  35   20   24 1
  36   20   27 1
  37   20   52 1
  38   22   53 1
  39   22   54 1
  40   23   30 1
  41   23   55 1
  42   23   56 1
  43   24   25 1
  44   24   57 1
  45   24   58 1
  46   25   26 ar
  47   25   35 ar
  48   26   27 1
  49   26   38 ar
  50   28   29 1
  51   29   30 ar
  52   29   31 ar
  53   30   34 ar
  54   31   32 ar
  55   31   59 1
  56   32   33 ar
  57   32   60 1
  58   33   34 ar
  59   33   39 1
  60   34   61 1
  61   35   36 ar
  62   35   62 1
  63   36   37 ar
  64   36   40 1
  65   37   38 ar
  66   37   63 1
  67   38   64 1
  68   39   42 1
  69   40   41 1
  70   41   65 1
  71   41   66 1
  72   41   67 1
  73   42   68 1
  74   42   69 1
  75   42   70 1

#	End of record

