#	Name: ASD01940553
#	Creating user name:	WinNT
#	Creation time:	15. 06. 2019 20:12

#	Modifying user name:	WinNT
#	Modification time:	15. 06. 2019 20:12

#	Program:	/corina/corina34_cracker 3.40 0067  02.08.2006

@<TRIPOS>MOLECULE
ASD01940553
  72   77    0    0    0
SMALL
NO_CHARGES


@<TRIPOS>ATOM
   1 C1             0.0887     1.4754    -0.5087 C.ar    
   2 C2             0.4276     0.6427     0.5476 C.ar    
   3 C3             1.6497    -0.0150     0.5445 C.ar    
   4 C4             2.5295     0.1624    -0.5159 C.ar    
   5 C5             2.1888     0.9927    -1.5666 C.ar    
   6 C6             0.9731     1.6487    -1.5663 C.ar    
   7 N7            -1.1459     2.1364    -0.5121 N.am    
   8 C8            -1.1948     3.4818    -0.1915 C.2     
   9 C9            -2.4432     4.1486    -0.1957 C.2     
  10 C10           -3.6493     3.3676    -0.5458 C.2     
  11 N11           -3.4786     2.0092    -0.8528 N.am    
  12 C12           -2.2565     1.4526    -0.8316 C.2     
  13 C13           -0.0566     4.1961     0.1333 C.2     
  14 C14           -0.1686     5.5527     0.4477 C.2     
  15 N15           -1.3635     6.1697     0.4390 N.am    
  16 C16           -2.5066     5.4933     0.1227 C.2     
  17 N17           -3.7154     6.1460     0.1202 N.pl3   
  18 C18           -1.4401     7.5935     0.7755 C.3     
  19 O19            0.8341     6.1880     0.7353 O.2     
  20 C20            1.2896     3.5189     0.1485 C.3     
  21 C21           -4.8585     3.9352    -0.5684 C.2     
  22 C22           -4.5910     1.2286    -1.1898 C.ar    
  23 N23            1.9953    -0.8551     1.6077 N.am    
  24 C24            1.5995    -0.5542     2.8604 C.2     
  25 C25            1.8637    -1.4991     3.9660 C.ar    
  26 O26            1.0251     0.4942     3.0811 O.2     
  27 C27           -4.4974     6.1749     1.2805 C.ar    
  28 C28           -4.0095     5.6332     2.4621 C.ar    
  29 C29           -4.7834     5.6630     3.6058 C.ar    
  30 C30           -6.0441     6.2318     3.5760 C.ar    
  31 C31           -6.5346     6.7728     2.4012 C.ar    
  32 C32           -5.7628     6.7514     1.2539 C.ar    
  33 F33           -6.2394     7.2847     0.1078 F       
  34 O34           -2.1515     0.2737    -1.1093 O.2     
  35 I35           -7.2133     6.2733     5.3139 I       
  36 C36            1.4551    -1.1905     5.2646 C.ar    
  37 C37            1.7049    -2.0767     6.2919 C.ar    
  38 C38            2.3589    -3.2692     6.0373 C.ar    
  39 C39            2.7666    -3.5811     4.7525 C.ar    
  40 C40            2.5180    -2.7064     3.7151 C.ar    
  41 C41           -5.2968     1.4902    -2.3569 C.ar    
  42 C42           -6.3934     0.7181    -2.6868 C.ar    
  43 C43           -6.7890    -0.3142    -1.8561 C.ar    
  44 C44           -6.0887    -0.5769    -0.6930 C.ar    
  45 C45           -4.9875     0.1876    -0.3606 C.ar    
  46 H46           -0.2580     0.5067     1.3709 H       
  47 H47            3.4808    -0.3488    -0.5189 H       
  48 H48            2.8746     1.1293    -2.3897 H       
  49 H49            0.7097     2.2969    -2.3889 H       
  50 H50           -4.0269     6.5868    -0.6857 H       
  51 H51           -0.4567     7.9471     1.0853 H       
  52 H52           -1.7699     8.1560    -0.0980 H       
  53 H53           -2.1507     7.7368     1.5894 H       
  54 H54            1.6991     3.5016    -0.8615 H       
  55 H55            1.9649     4.0676     0.8050 H       
  56 H56            1.1785     2.4977     0.5130 H       
  57 H57           -4.9788     4.9622    -0.2566 H       
  58 H58           -5.7156     3.3671    -0.8986 H       
  59 H59            2.5199    -1.6543     1.4437 H       
  60 H60           -3.0256     5.1885     2.4868 H       
  61 H61           -4.4039     5.2412     4.5248 H       
  62 H62           -7.5194     7.2158     2.3810 H       
  63 H63            0.9448    -0.2599     5.4647 H       
  64 H64            1.3896    -1.8391     7.2972 H       
  65 H65            2.5523    -3.9593     6.8452 H       
  66 H66            3.2769    -4.5134     4.5606 H       
  67 H67            2.8324    -2.9532     2.7118 H       
  68 H68           -4.9887     2.2968    -3.0057 H       
  69 H69           -6.9427     0.9211    -3.5942 H       
  70 H70           -7.6471    -0.9163    -2.1160 H       
  71 H71           -6.4004    -1.3836    -0.0462 H       
  72 H72           -4.4382    -0.0210     0.5456 H       
@<TRIPOS>BOND
   1    1    2 ar
   2    1    6 ar
   3    1    7 1
   4    2    3 ar
   5    2   46 1
   6    3    4 ar
   7    3   23 1
   8    4    5 ar
   9    4   47 1
  10    5    6 ar
  11    5   48 1
  12    6   49 1
  13    7    8 1
  14    7   12 am
  15    8   13 2
  16    8    9 1
  17    9   10 1
  18    9   16 2
  19   10   11 1
  20   10   21 2
  21   11   12 am
  22   11   22 1
  23   12   34 2
  24   13   14 1
  25   13   20 1
  26   14   15 am
  27   14   19 2
  28   15   16 1
  29   15   18 1
  30   16   17 1
  31   17   27 1
  32   17   50 1
  33   18   51 1
  34   18   52 1
  35   18   53 1
  36   20   54 1
  37   20   55 1
  38   20   56 1
  39   21   57 1
  40   21   58 1
  41   22   41 ar
  42   22   45 ar
  43   23   24 am
  44   23   59 1
  45   24   25 1
  46   24   26 2
  47   25   36 ar
  48   25   40 ar
  49   27   28 ar
  50   27   32 ar
  51   28   29 ar
  52   28   60 1
  53   29   30 ar
  54   29   61 1
  55   30   31 ar
  56   30   35 1
  57   31   32 ar
  58   31   62 1
  59   32   33 1
  60   36   37 ar
  61   36   63 1
  62   37   38 ar
  63   37   64 1
  64   38   39 ar
  65   38   65 1
  66   39   40 ar
  67   39   66 1
  68   40   67 1
  69   41   42 ar
  70   41   68 1
  71   42   43 ar
  72   42   69 1
  73   43   44 ar
  74   43   70 1
  75   44   45 ar
  76   44   71 1
  77   45   72 1

#	End of record

