#	Name: ASD02500256
#	Creating user name:	WinNT
#	Creation time:	15. 06. 2019 20:22

#	Modifying user name:	WinNT
#	Modification time:	15. 06. 2019 20:22

#	Program:	/corina/corina34_cracker 3.40 0067  02.08.2006

@<TRIPOS>MOLECULE
ASD02500256
  64   68    0    0    0
SMALL
NO_CHARGES


@<TRIPOS>ATOM
   1 N1            -3.0544     5.3120     0.7583 N.ar    
   2 C2            -4.2229     5.8798     0.9328 C.ar    
   3 C3            -5.0569     5.5304     1.9929 C.ar    
   4 C4            -4.6628     4.5726     2.8832 C.ar    
   5 C5            -3.4075     3.9646     2.6924 C.ar    
   6 C6            -2.9349     2.9729     3.5665 C.ar    
   7 C7            -1.7147     2.4092     3.3480 C.ar    
   8 C8            -0.9280     2.8038     2.2681 C.ar    
   9 C9            -1.3551     3.7622     1.4012 C.ar    
  10 C10           -2.6089     4.3677     1.5932 C.ar    
  11 S11           -0.3395     4.2429     0.0439 S.o2    
  12 O12           -0.3082     5.6635     0.0495 O.2     
  13 O13            0.8305     3.4395     0.1139 O.2     
  14 N14           -1.1301     3.7980    -1.3416 N.am    
  15 C15           -1.3628     2.4531    -1.6080 C.ar    
  16 C16           -2.6222     2.0374    -2.0233 C.ar    
  17 C17           -2.8537     0.6995    -2.2888 C.ar    
  18 C18           -1.8120    -0.2295    -2.1362 C.ar    
  19 C19           -0.5503     0.2047    -1.7174 C.ar    
  20 C20           -0.3310     1.5279    -1.4631 C.ar    
  21 O21           -4.0810     0.2873    -2.6942 O.3     
  22 C22           -5.0910     1.2895    -2.8266 C.3     
  23 C23           -2.0473    -1.6557    -2.4155 C.2     
  24 O24           -2.9515    -2.2443    -1.8539 O.2     
  25 N25           -1.2608    -2.3092    -3.2934 N.am    
  26 C26           -1.5410    -3.7064    -3.6528 C.3     
  27 C27           -1.6742    -3.8030    -5.1776 C.3     
  28 N28           -0.5212    -3.1309    -5.7932 N.am    
  29 C29           -0.2410    -1.7337    -5.4339 C.3     
  30 C30           -0.1112    -1.6354    -3.9133 C.3     
  31 C31            0.2653    -3.7844    -6.6712 C.2     
  32 C32            1.4194    -3.0969    -7.2814 C.ar    
  33 C33            1.2659    -2.3946    -8.4816 C.ar    
  34 C34            2.3524    -1.7535    -9.0463 C.ar    
  35 C35            3.5887    -1.8049    -8.4283 C.ar    
  36 C36            3.7493    -2.4969    -7.2417 C.ar    
  37 C37            2.6722    -3.1389    -6.6601 C.ar    
  38 O38            0.0237    -4.9404    -6.9605 O.2     
  39 F39            2.8300    -3.8097    -5.4981 F       
  40 F40            0.0592    -2.3435    -9.0870 F       
  41 H41           -4.5476     6.6389     0.2367 H       
  42 H42           -6.0139     6.0168     2.1107 H       
  43 H43           -5.2964     4.2897     3.7108 H       
  44 H44           -3.5354     2.6592     4.4075 H       
  45 H45           -1.3520     1.6463     4.0210 H       
  46 H46            0.0365     2.3421     2.1166 H       
  47 H47           -1.4308     4.4755    -1.9672 H       
  48 H48           -3.4189     2.7574    -2.1383 H       
  49 H49            0.2529    -0.5074    -1.5986 H       
  50 H50            0.6462     1.8588    -1.1439 H       
  51 H51           -6.0211     0.8266    -3.1564 H       
  52 H52           -5.2486     1.7759    -1.8639 H       
  53 H53           -4.7738     2.0304    -3.5604 H       
  54 H54           -0.7220    -4.3420    -3.3161 H       
  55 H55           -2.4717    -4.0253    -3.1834 H       
  56 H56           -1.6900    -4.8508    -5.4778 H       
  57 H57           -2.5952    -3.3147    -5.4961 H       
  58 H58            0.6896    -1.4149    -5.9033 H       
  59 H59           -1.0600    -1.0981    -5.7706 H       
  60 H60           -0.0978    -0.5868    -3.6159 H       
  61 H61            0.8119    -2.1201    -3.5955 H       
  62 H62            2.2358    -1.2112    -9.9729 H       
  63 H63            4.4335    -1.3020    -8.8752 H       
  64 H64            4.7182    -2.5320    -6.7658 H       
@<TRIPOS>BOND
   1    1    2 ar
   2    1   10 ar
   3    2    3 ar
   4    2   41 1
   5    3    4 ar
   6    3   42 1
   7    4    5 ar
   8    4   43 1
   9    5    6 ar
  10    5   10 ar
  11    6    7 ar
  12    6   44 1
  13    7    8 ar
  14    7   45 1
  15    8    9 ar
  16    8   46 1
  17    9   10 ar
  18    9   11 1
  19   11   12 2
  20   11   13 2
  21   11   14 am
  22   14   15 1
  23   14   47 1
  24   15   16 ar
  25   15   20 ar
  26   16   17 ar
  27   16   48 1
  28   17   18 ar
  29   17   21 1
  30   18   19 ar
  31   18   23 1
  32   19   20 ar
  33   19   49 1
  34   20   50 1
  35   21   22 1
  36   22   51 1
  37   22   52 1
  38   22   53 1
  39   23   24 2
  40   23   25 am
  41   25   26 1
  42   25   30 1
  43   26   27 1
  44   26   54 1
  45   26   55 1
  46   27   28 1
  47   27   56 1
  48   27   57 1
  49   28   29 1
  50   28   31 am
  51   29   30 1
  52   29   58 1
  53   29   59 1
  54   30   60 1
  55   30   61 1
  56   31   32 1
  57   31   38 2
  58   32   33 ar
  59   32   37 ar
  60   33   34 ar
  61   33   40 1
  62   34   35 ar
  63   34   62 1
  64   35   36 ar
  65   35   63 1
  66   36   37 ar
  67   36   64 1
  68   37   39 1

#	End of record

