#	Name: ASD01910014
#	Creating user name:	WinNT
#	Creation time:	15. 06. 2019 19:55

#	Modifying user name:	WinNT
#	Modification time:	15. 06. 2019 19:55

#	Program:	/corina/corina34_cracker 3.40 0067  02.08.2006

@<TRIPOS>MOLECULE
ASD01910014
  43   46    0    0    0
SMALL
NO_CHARGES


@<TRIPOS>ATOM
   1 N1            -0.0158     1.3125     0.0093 N.2     
   2 C2             0.0021    -0.0041     0.0020 C.2     
   3 C3             1.3450    -0.4256    -0.0131 C.2     
   4 C4             2.1291     0.6845    -0.0146 C.2     
   5 N5             1.3077     1.7709    -0.0009 N.pl3   
   6 C6            -1.1880    -0.8904     0.0094 C.ar    
   7 C7            -2.4686    -0.3415     0.0248 C.ar    
   8 C8            -3.5720    -1.1705     0.0316 C.ar    
   9 C9            -3.4083    -2.5440     0.0232 C.ar    
  10 C10           -2.1394    -3.0944     0.0083 C.ar    
  11 C11           -1.0290    -2.2747    -0.0049 C.ar    
  12 C12            1.7149     3.1112     0.0024 C.ar    
  13 C13            0.9688     4.0668    -0.6747 C.ar    
  14 C14            1.3727     5.3875    -0.6691 C.ar    
  15 C15            2.5190     5.7586     0.0093 C.ar    
  16 C16            3.2645     4.8093     0.6842 C.ar    
  17 C17            2.8625     3.4880     0.6876 C.ar    
  18 N18            3.5225     0.7072    -0.0274 N.am    
  19 C19            4.2152    -0.4489    -0.0402 C.2     
  20 C20            5.6914    -0.4249    -0.0538 C.ar    
  21 O21            3.6244    -1.5116    -0.0407 O.2     
  22 C22            6.4137    -1.6223    -0.0671 C.ar    
  23 C23            7.7964    -1.5904    -0.0797 C.ar    
  24 C24            8.4622    -0.3792    -0.0786 C.ar    
  25 C25            7.7521     0.8093    -0.0649 C.ar    
  26 C26            6.3736     0.7940    -0.0590 C.ar    
  27 F27            5.7630    -2.8063    -0.0673 F       
  28 H28            1.6907    -1.4487    -0.0215 H       
  29 H29           -2.5976     0.7308     0.0318 H       
  30 H30           -4.5651    -0.7461     0.0440 H       
  31 H31           -4.2745    -3.1891     0.0286 H       
  32 H32           -2.0173    -4.1674     0.0024 H       
  33 H33           -0.0387    -2.7054    -0.0165 H       
  34 H34            0.0737     3.7774    -1.2054 H       
  35 H35            0.7928     6.1312    -1.1956 H       
  36 H36            2.8330     6.7920     0.0119 H       
  37 H37            4.1597     5.1022     1.2126 H       
  38 H38            3.4449     2.7471     1.2150 H       
  39 H39            3.9938     1.5550    -0.0270 H       
  40 H40            8.3568    -2.5135    -0.0901 H       
  41 H41            9.5420    -0.3598    -0.0881 H       
  42 H42            8.2798     1.7516    -0.0638 H       
  43 H43            5.8223     1.7226    -0.0484 H       
@<TRIPOS>BOND
   1    1    2 2
   2    1    5 1
   3    2    3 1
   4    2    6 1
   5    3    4 2
   6    3   28 1
   7    4    5 1
   8    4   18 1
   9    5   12 1
  10    6    7 ar
  11    6   11 ar
  12    7    8 ar
  13    7   29 1
  14    8    9 ar
  15    8   30 1
  16    9   10 ar
  17    9   31 1
  18   10   11 ar
  19   10   32 1
  20   11   33 1
  21   12   13 ar
  22   12   17 ar
  23   13   14 ar
  24   13   34 1
  25   14   15 ar
  26   14   35 1
  27   15   16 ar
  28   15   36 1
  29   16   17 ar
  30   16   37 1
  31   17   38 1
  32   18   19 am
  33   18   39 1
  34   19   20 1
  35   19   21 2
  36   20   22 ar
  37   20   26 ar
  38   22   23 ar
  39   22   27 1
  40   23   24 ar
  41   23   40 1
  42   24   25 ar
  43   24   41 1
  44   25   26 ar
  45   25   42 1
  46   26   43 1

#	End of record

