#	Name: ASD01410200
#	Creating user name:	WinNT
#	Creation time:	15. 06. 2019 19:16

#	Modifying user name:	WinNT
#	Modification time:	15. 06. 2019 19:16

#	Program:	/corina/corina34_cracker 3.40 0067  02.08.2006

@<TRIPOS>MOLECULE
ASD01410200
  42   45    0    0    0
SMALL
NO_CHARGES


@<TRIPOS>ATOM
   1 C1            -0.0170     1.4050     0.0098 C.ar    
   2 C2             0.0021    -0.0041     0.0020 C.ar    
   3 C3            -1.2040    -0.7215     0.0101 C.ar    
   4 C4            -2.3915    -0.0582     0.0254 C.ar    
   5 C5            -2.4219     1.3452     0.0332 C.ar    
   6 C6            -1.2313     2.0743     0.0300 C.ar    
   7 N7             1.2965     1.8324    -0.0005 N.pl3   
   8 C8             2.1191     0.7321    -0.0142 C.2     
   9 C9             1.3621    -0.3952    -0.0131 C.2     
  10 C10           -3.7142     2.0509     0.0493 C.2     
  11 O11           -3.7431     3.2659     0.0561 O.2     
  12 O12           -4.8652     1.3493     0.0564 O.3     
  13 C13            5.7190     1.3120    -0.5305 C.2     
  14 O14            5.7036     0.3571     0.4119 O.3     
  15 C15            4.4454     0.0188     0.7262 C.2     
  16 C16            3.5972     0.7696    -0.0281 C.2     
  17 C17            4.4548     1.6246    -0.8588 C.2     
  18 C18            1.2648    -2.6292     1.1376 C.3     
  19 C19            1.3648    -4.0939     0.6638 C.3     
  20 C20            1.4343    -4.0550    -0.8729 C.3     
  21 C21            1.3740    -2.5680    -1.2792 C.3     
  22 C22            1.8783    -1.8110    -0.0256 C.3     
  23 C23            1.7394     3.2289     0.0028 C.3     
  24 Cl24          -1.2709     3.8098     0.0403 Cl      
  25 H25           -1.1894    -1.8014     0.0038 H       
  26 H26           -3.3169    -0.6150     0.0312 H       
  27 H27           -5.6884     1.8565     0.0670 H       
  28 H28            6.6056     1.7606    -0.9537 H       
  29 H29            4.1541    -0.7239     1.4543 H       
  30 H30            4.1341     2.3564    -1.5855 H       
  31 H31            0.2230    -2.3489     1.2933 H       
  32 H32            1.8407    -2.4838     2.0516 H       
  33 H33            2.2660    -4.5560     1.0667 H       
  34 H34            0.4841    -4.6508     0.9838 H       
  35 H35            2.3692    -4.4982    -1.2157 H       
  36 H36            0.5873    -4.5930    -1.2987 H       
  37 H37            2.0296    -2.3779    -2.1290 H       
  38 H38            0.3499    -2.2778    -1.5139 H       
  39 H39            2.9672    -1.8239     0.0215 H       
  40 H40            1.8594     3.5696     1.0312 H       
  41 H41            2.6924     3.3090    -0.5201 H       
  42 H42            0.9958     3.8470    -0.5003 H       
@<TRIPOS>BOND
   1    1    2 ar
   2    1    7 1
   3    1    6 ar
   4    2    3 ar
   5    2    9 1
   6    3    4 ar
   7    3   25 1
   8    4    5 ar
   9    4   26 1
  10    5    6 ar
  11    5   10 1
  12    6   24 1
  13    7    8 1
  14    7   23 1
  15    8    9 2
  16    8   16 1
  17    9   22 1
  18   10   11 2
  19   10   12 1
  20   12   27 1
  21   13   14 1
  22   13   17 2
  23   13   28 1
  24   14   15 1
  25   15   16 2
  26   15   29 1
  27   16   17 1
  28   17   30 1
  29   18   19 1
  30   18   22 1
  31   18   31 1
  32   18   32 1
  33   19   20 1
  34   19   33 1
  35   19   34 1
  36   20   21 1
  37   20   35 1
  38   20   36 1
  39   21   22 1
  40   21   37 1
  41   21   38 1
  42   22   39 1
  43   23   40 1
  44   23   41 1
  45   23   42 1

#	End of record

