#	Name: ASD01410595
#	Creating user name:	WinNT
#	Creation time:	15. 06. 2019 19:18

#	Modifying user name:	WinNT
#	Modification time:	15. 06. 2019 19:18

#	Program:	/corina/corina34_cracker 3.40 0067  02.08.2006

@<TRIPOS>MOLECULE
ASD01410595
  67   69    0    0    0
SMALL
NO_CHARGES


@<TRIPOS>ATOM
   1 C1            -3.0281     4.1629    -0.6387 C.3     
   2 O2            -2.3239     2.9346    -0.4457 O.3     
   3 C3            -2.9295     1.7999    -0.8868 C.ar    
   4 C4            -4.2228     1.8567    -1.3919 C.ar    
   5 C5            -4.8470     0.7110    -1.8423 C.ar    
   6 C6            -4.1854    -0.5080    -1.7936 C.ar    
   7 C7            -2.8792    -0.5721    -1.2851 C.ar    
   8 C8            -2.2544     0.5942    -0.8365 C.ar    
   9 N9            -4.8167    -1.6652    -2.2478 N.am    
  10 C10           -4.6853    -2.0436    -3.5347 C.2     
  11 C11           -5.6229    -2.4697    -1.3264 C.3     
  12 O12           -5.3024    -3.0010    -3.9513 O.2     
  13 C13           -3.7717    -1.2771    -4.4560 C.3     
  14 C14           -4.3573    -1.2753    -5.8695 C.3     
  15 C15           -3.4297    -0.4971    -6.8048 C.3     
  16 C16           -2.0515    -1.1611    -6.8247 C.3     
  17 C17           -1.4659    -1.1629    -5.4112 C.3     
  18 C18           -2.3934    -1.9411    -4.4758 C.3     
  19 C19           -1.1239    -0.3829    -7.7600 C.3     
  20 C20           -5.4340    -1.9527     0.1012 C.3     
  21 O21           -7.2985    -2.9719    -2.9938 O.3     
  22 C22           -7.0988    -2.3652    -1.7155 C.3     
  23 C23           -8.6510    -2.9281    -3.4531 C.3     
  24 O24           -4.0802    -2.1616     0.5082 O.3     
  25 C25           -3.7958    -1.7111     1.8342 C.3     
  26 C26           -3.9524     4.4519     0.5648 C.3     
  27 C27           -2.0446     5.3545    -0.6513 C.3     
  28 C28           -2.4911     6.2225     0.5460 C.3     
  29 O29           -3.1749     5.3078     1.4301 O.3     
  30 C30           -2.1685    -1.8621    -1.2287 C.2     
  31 O31           -2.6797    -2.8585    -1.7002 O.2     
  32 O32           -0.9518    -1.9365    -0.6542 O.3     
  33 H33           -3.6020     4.1315    -1.5648 H       
  34 H34           -4.7426     2.8026    -1.4319 H       
  35 H35           -5.8524     0.7632    -2.2332 H       
  36 H36           -1.2491     0.5528    -0.4438 H       
  37 H37           -5.3057    -3.5111    -1.3806 H       
  38 H38           -3.6756    -0.2509    -4.1012 H       
  39 H39           -4.4535    -2.3014    -6.2242 H       
  40 H40           -5.3392    -0.8022    -5.8553 H       
  41 H41           -3.8470    -0.4958    -7.8118 H       
  42 H42           -3.3336     0.5291    -6.4501 H       
  43 H43           -2.1476    -2.1872    -7.1795 H       
  44 H44           -0.4840    -1.6359    -5.4253 H       
  45 H45           -1.3697    -0.1367    -5.0564 H       
  46 H46           -1.9762    -1.9424    -3.4689 H       
  47 H47           -2.4896    -2.9672    -4.8306 H       
  48 H48           -1.0277     0.6433    -7.4053 H       
  49 H49           -0.1420    -0.8559    -7.7742 H       
  50 H50           -1.5411    -0.3816    -8.7670 H       
  51 H51           -5.6634    -0.8876     0.1352 H       
  52 H52           -6.1026    -2.4900     0.7737 H       
  53 H53           -7.7081    -2.8776    -0.9710 H       
  54 H54           -7.3888    -1.3155    -1.7623 H       
  55 H55           -9.2925    -3.4522    -2.7446 H       
  56 H56           -8.9732    -1.8901    -3.5359 H       
  57 H57           -8.7191    -3.4086    -4.4291 H       
  58 H58           -4.4305    -2.2435     2.5427 H       
  59 H59           -2.7489    -1.9053     2.0672 H       
  60 H60           -3.9913    -0.6411     1.9042 H       
  61 H61           -4.8555     4.9654     0.2350 H       
  62 H62           -4.2080     3.5249     1.0781 H       
  63 H63           -1.0213     5.0067    -0.5103 H       
  64 H64           -2.1340     5.9137    -1.5827 H       
  65 H65           -1.6241     6.6556     1.0449 H       
  66 H66           -3.1701     7.0076     0.2133 H       
  67 H67           -0.5248    -2.8041    -0.6410 H       
@<TRIPOS>BOND
   1    1    2 1
   2    1   27 1
   3    1   26 1
   4    1   33 1
   5    2    3 1
   6    3    4 ar
   7    3    8 ar
   8    4    5 ar
   9    4   34 1
  10    5    6 ar
  11    5   35 1
  12    6    7 ar
  13    6    9 1
  14    7    8 ar
  15    7   30 1
  16    8   36 1
  17    9   10 am
  18    9   11 1
  19   10   12 2
  20   10   13 1
  21   11   20 1
  22   11   22 1
  23   11   37 1
  24   13   14 1
  25   13   18 1
  26   13   38 1
  27   14   15 1
  28   14   39 1
  29   14   40 1
  30   15   16 1
  31   15   41 1
  32   15   42 1
  33   16   17 1
  34   16   19 1
  35   16   43 1
  36   17   18 1
  37   17   44 1
  38   17   45 1
  39   18   46 1
  40   18   47 1
  41   19   48 1
  42   19   49 1
  43   19   50 1
  44   20   24 1
  45   20   51 1
  46   20   52 1
  47   21   22 1
  48   21   23 1
  49   22   53 1
  50   22   54 1
  51   23   55 1
  52   23   56 1
  53   23   57 1
  54   24   25 1
  55   25   58 1
  56   25   59 1
  57   25   60 1
  58   26   29 1
  59   26   61 1
  60   26   62 1
  61   27   28 1
  62   27   63 1
  63   27   64 1
  64   28   29 1
  65   28   65 1
  66   28   66 1
  67   30   31 2
  68   30   32 1
  69   32   67 1

#	End of record

