#	Name: ASD05740241
#	Creating user name:	WinNT
#	Creation time:	15. 06. 2019 21:03

#	Modifying user name:	WinNT
#	Modification time:	15. 06. 2019 21:03

#	Program:	/corina/corina34_cracker 3.40 0067  02.08.2006

@<TRIPOS>MOLECULE
ASD05740241
  48   51    0    0    0
SMALL
NO_CHARGES


@<TRIPOS>ATOM
   1 C1            -0.1731     1.0476     1.0872 C.ar    
   2 C2            -0.0887    -0.1912     0.4746 C.ar    
   3 N3             0.8849     1.6014     1.6503 N.ar    
   4 C4             2.0602     1.0068     1.6560 C.ar    
   5 C5             2.2266    -0.2416     1.0596 C.ar    
   6 C6             1.1252    -0.8550     0.4550 C.ar    
   7 C7             3.5508    -0.9089     1.0662 C.ar    
   8 C8             4.6259    -0.3456     1.7594 C.ar    
   9 N9             3.7325    -2.0563     0.4166 N.ar    
  10 C10            4.9139    -2.6537     0.4211 C.ar    
  11 N11            5.9516    -2.1397     1.0656 N.ar    
  12 C12            5.8422    -1.0041     1.7370 C.ar    
  13 N13            5.0693    -3.8468    -0.2649 N.pl3   
  14 Cl14          -1.6916     1.8888     1.1088 Cl      
  15 C15            6.3370    -4.4337    -0.3712 C.ar    
  16 C16            6.4643    -5.8164    -0.3686 C.ar    
  17 C17            7.4655    -3.6326    -0.4852 C.ar    
  18 C18            8.7149    -4.2110    -0.5905 C.ar    
  19 C19            8.8428    -5.5938    -0.5825 C.ar    
  20 C20            7.7136    -6.3949    -0.4734 C.ar    
  21 N21           10.1091    -6.1801    -0.6897 N.3     
  22 C22           11.4076    -8.2486    -0.8593 C.3     
  23 N23           12.3052    -7.7601     0.1968 N.3     
  24 C24           12.3995    -6.2939     0.1673 C.3     
  25 C25           11.0066    -5.6917     0.3664 C.3     
  26 C26           13.6344    -8.3755     0.0843 C.3     
  27 C27           10.0147    -7.6463    -0.6602 C.3     
  28 H28           -0.9608    -0.6348     0.0174 H       
  29 H29            2.9027     1.4915     2.1269 H       
  30 H30            1.2196    -1.8224    -0.0159 H       
  31 H31            4.5098     0.5824     2.2996 H       
  32 H32            6.6945    -0.5942     2.2587 H       
  33 H33            4.3004    -4.2760    -0.6716 H       
  34 H34            5.5861    -6.4394    -0.2841 H       
  35 H35            7.3660    -2.5573    -0.4917 H       
  36 H36            9.5926    -3.5880    -0.6795 H       
  37 H37            7.8131    -7.4703    -0.4669 H       
  38 H38           11.7965    -7.9514    -1.8333 H       
  39 H39           11.3444    -9.3356    -0.8089 H       
  40 H40           13.0595    -5.9558     0.9662 H       
  41 H41           12.7996    -5.9745    -0.7950 H       
  42 H42           11.0698    -4.6047     0.3160 H       
  43 H43           10.6178    -5.9889     1.3404 H       
  44 H44           14.0681    -8.1288    -0.8848 H       
  45 H45           14.2785    -7.9966     0.8777 H       
  46 H46           13.5426    -9.4577     0.1764 H       
  47 H47            9.6146    -7.9657     0.3021 H       
  48 H48            9.3548    -7.9844    -1.4591 H       
@<TRIPOS>BOND
   1    1    2 ar
   2    1    3 ar
   3    1   14 1
   4    2    6 ar
   5    2   28 1
   6    3    4 ar
   7    4    5 ar
   8    4   29 1
   9    5    6 ar
  10    5    7 1
  11    6   30 1
  12    7    8 ar
  13    7    9 ar
  14    8   12 ar
  15    8   31 1
  16    9   10 ar
  17   10   11 ar
  18   10   13 1
  19   11   12 ar
  20   12   32 1
  21   13   15 1
  22   13   33 1
  23   15   16 ar
  24   15   17 ar
  25   16   20 ar
  26   16   34 1
  27   17   18 ar
  28   17   35 1
  29   18   19 ar
  30   18   36 1
  31   19   20 ar
  32   19   21 1
  33   20   37 1
  34   21   27 1
  35   21   25 1
  36   22   23 1
  37   22   27 1
  38   22   38 1
  39   22   39 1
  40   23   24 1
  41   23   26 1
  42   24   25 1
  43   24   40 1
  44   24   41 1
  45   25   42 1
  46   25   43 1
  47   26   44 1
  48   26   45 1
  49   26   46 1
  50   27   47 1
  51   27   48 1

#	End of record

