#	Name: ASD01884263
#	Creating user name:	WinNT
#	Creation time:	15. 06. 2019 19:47

#	Modifying user name:	WinNT
#	Modification time:	15. 06. 2019 19:47

#	Program:	/corina/corina34_cracker 3.40 0067  02.08.2006

@<TRIPOS>MOLECULE
ASD01884263
  20   21    0    0    0
SMALL
NO_CHARGES


@<TRIPOS>ATOM
   1 C1            -0.0168     1.3879     0.0097 C.ar    
   2 C2             0.0021    -0.0041     0.0020 C.ar    
   3 C3            -1.1702    -0.7170     0.0089 C.ar    
   4 C4            -2.4140    -0.0517     0.0243 C.ar    
   5 C5            -2.4228     1.3461     0.0323 C.ar    
   6 C6            -1.2268     2.0597     0.0306 C.ar    
   7 N7            -3.6544    -0.5836     0.0328 N.2     
   8 C8            -4.6570     0.2262     0.0468 C.2     
   9 S9            -4.0978     1.8928     0.0511 S.3     
  10 Br10          -1.2561     3.9505     0.0416 Br      
  11 N11            1.1850     2.1064     0.0021 N.pl3   
  12 S12           -6.3485    -0.2672     0.0603 S.3     
  13 C13           -6.1511    -2.0663     0.0494 C.3     
  14 H14            0.9470    -0.5269    -0.0098 H       
  15 H15           -1.1405    -1.7966     0.0021 H       
  16 H16            2.0323     1.6343    -0.0086 H       
  17 H17            1.1703     3.0763     0.0074 H       
  18 H18           -5.6092    -2.3670    -0.8473 H       
  19 H19           -5.5924    -2.3759     0.9326 H       
  20 H20           -7.1330    -2.5396     0.0563 H       
@<TRIPOS>BOND
   1    1    2 ar
   2    1   11 1
   3    1    6 ar
   4    2    3 ar
   5    2   14 1
   6    3    4 ar
   7    3   15 1
   8    4    5 ar
   9    4    7 1
  10    5    6 ar
  11    5    9 1
  12    6   10 1
  13    7    8 2
  14    8    9 1
  15    8   12 1
  16   11   16 1
  17   11   17 1
  18   12   13 1
  19   13   18 1
  20   13   19 1
  21   13   20 1

#	End of record

