#	Name: ASD01884772
#	Creating user name:	WinNT
#	Creation time:	15. 06. 2019 19:48

#	Modifying user name:	WinNT
#	Modification time:	15. 06. 2019 19:48

#	Program:	/corina/corina34_cracker 3.40 0067  02.08.2006

@<TRIPOS>MOLECULE
ASD01884772
  40   42    0    0    0
SMALL
NO_CHARGES


@<TRIPOS>ATOM
   1 N1            -0.0163     1.3534     0.0095 N.am    
   2 C2             0.0021    -0.0041     0.0020 C.2     
   3 C3             1.1314     2.0576     0.0023 C.2     
   4 C4             2.3671     1.3883    -0.0131 C.2     
   5 C5             2.3876     0.0245    -0.0207 C.2     
   6 C6             1.1751    -0.6792    -0.0129 C.2     
   7 C7            -1.2995     2.0602     0.0194 C.3     
   8 C8            -1.7328     2.2948     1.4436 C.ar    
   9 C9            -1.3538     3.4512     2.0995 C.ar    
  10 C10           -2.5139     1.3562     2.0917 C.ar    
  11 C11           -2.9119     1.5711     3.3977 C.ar    
  12 C12           -2.5282     2.7255     4.0565 C.ar    
  13 C13           -1.7504     3.6667     3.4058 C.ar    
  14 Cl14          -3.0278     2.9961     5.6969 Cl      
  15 O15            1.0986     3.2777     0.0088 O.2     
  16 C16            1.1777    -2.1862    -0.0205 C.3     
  17 N17            1.2860    -2.6673    -1.4000 N.pl3   
  18 C18            1.3082    -4.0392    -1.6615 C.ar    
  19 C19            1.4109    -4.4971    -2.9689 C.ar    
  20 C20            1.2335    -4.9487    -0.6142 C.ar    
  21 C21            1.2557    -6.3045    -0.8762 C.ar    
  22 C22            1.3527    -6.7570    -2.1793 C.ar    
  23 C23            1.4325    -5.8542    -3.2239 C.ar    
  24 H24           -0.9291    -0.5510     0.0084 H       
  25 H25            3.2908     1.9479    -0.0193 H       
  26 H26            3.3275    -0.5074    -0.0329 H       
  27 H27           -1.1908     3.0178    -0.4898 H       
  28 H28           -2.0496     1.4587    -0.4942 H       
  29 H29           -0.7472     4.1861     1.5912 H       
  30 H30           -2.8134     0.4551     1.5773 H       
  31 H31           -3.5227     0.8381     3.9037 H       
  32 H32           -1.4503     4.5679     3.9197 H       
  33 H33            2.0257    -2.5510     0.5591 H       
  34 H34            0.2511    -2.5534     0.4207 H       
  35 H35            1.3422    -2.0332    -2.1318 H       
  36 H36            1.4733    -3.7926    -3.7851 H       
  37 H37            1.1585    -4.5960     0.4039 H       
  38 H38            1.1977    -7.0122    -0.0624 H       
  39 H39            1.3706    -7.8177    -2.3814 H       
  40 H40            1.5082    -6.2109    -4.2405 H       
@<TRIPOS>BOND
   1    1    2 1
   2    1    3 am
   3    1    7 1
   4    2    6 2
   5    2   24 1
   6    3    4 1
   7    3   15 2
   8    4    5 2
   9    4   25 1
  10    5    6 1
  11    5   26 1
  12    6   16 1
  13    7    8 1
  14    7   27 1
  15    7   28 1
  16    8    9 ar
  17    8   10 ar
  18    9   13 ar
  19    9   29 1
  20   10   11 ar
  21   10   30 1
  22   11   12 ar
  23   11   31 1
  24   12   13 ar
  25   12   14 1
  26   13   32 1
  27   16   17 1
  28   16   33 1
  29   16   34 1
  30   17   18 1
  31   17   35 1
  32   18   19 ar
  33   18   20 ar
  34   19   23 ar
  35   19   36 1
  36   20   21 ar
  37   20   37 1
  38   21   22 ar
  39   21   38 1
  40   22   23 ar
  41   22   39 1
  42   23   40 1

#	End of record

