#	Name: ASD00431082
#	Creating user name:	WinNT
#	Creation time:	15. 06. 2019 18:35

#	Modifying user name:	WinNT
#	Modification time:	15. 06. 2019 18:35

#	Program:	/corina/corina34_cracker 3.40 0067  02.08.2006

@<TRIPOS>MOLECULE
ASD00431082
  45   47    0    0    0
SMALL
NO_CHARGES


@<TRIPOS>ATOM
   1 N1             0.5306     1.9117    -1.0957 N.am    
   2 C2             0.4493     0.5767    -1.2619 C.2     
   3 O3             1.4223    -0.1222    -1.0543 O.2     
   4 N4            -0.7107     0.0163    -1.6582 N.am    
   5 C5             1.7914     2.5207    -0.6649 C.3     
   6 C6             2.6823     2.7658    -1.8844 C.3     
   7 C7             1.5072     3.8320     0.0212 C.ar    
   8 C8             2.2233     4.1879     1.1504 C.ar    
   9 C9             1.9685     5.3871     1.7830 C.ar    
  10 C10            0.9856     6.2421     1.2815 C.ar    
  11 C11            0.2669     5.8769     0.1419 C.ar    
  12 C12            0.5353     4.6773    -0.4841 C.ar    
  13 S13            1.5157     8.1412     3.3945 S.3     
  14 C14            0.5512     9.5519     3.3495 C.2     
  15 N15           -0.2656     9.5068     2.3434 N.2     
  16 C16           -0.2115     8.4398     1.5745 C.2     
  17 C17            0.7069     7.5282     1.9544 C.2     
  18 O18            0.6288    10.5712     4.2384 O.3     
  19 C19           -0.2784    11.5786     4.1351 C.ar    
  20 C20           -1.5795    11.3885     4.5774 C.ar    
  21 C21           -2.5009    12.4119     4.4724 C.ar    
  22 C22           -2.1257    13.6296     3.9244 C.ar    
  23 C23           -0.8248    13.8198     3.4821 C.ar    
  24 C24            0.0985    12.7986     3.5927 C.ar    
  25 O25           -3.0332    14.6368     3.8203 O.3     
  26 C26           -2.5778    15.8636     3.2460 C.3     
  27 H27           -0.2445     2.4696    -1.2652 H       
  28 H28           -1.4869     0.5739    -1.8239 H       
  29 H29           -0.7692    -0.9445    -1.7778 H       
  30 H30            2.3004     1.8508     0.0282 H       
  31 H31            3.6204     3.2189    -1.5638 H       
  32 H32            2.8879     1.8173    -2.3806 H       
  33 H33            2.1734     3.4356    -2.5774 H       
  34 H34            2.9832     3.5253     1.5375 H       
  35 H35            2.5279     5.6635     2.6645 H       
  36 H36           -0.4951     6.5338    -0.2510 H       
  37 H37           -0.0172     4.3954    -1.3683 H       
  38 H38           -0.8487     8.3056     0.7129 H       
  39 H39           -1.8719    10.4401     5.0035 H       
  40 H40           -3.5138    12.2639     4.8168 H       
  41 H41           -0.5328    14.7679     3.0551 H       
  42 H42            1.1125    12.9481     3.2524 H       
  43 H43           -3.3987    16.5803     3.2221 H       
  44 H44           -1.7621    16.2654     3.8470 H       
  45 H45           -2.2254    15.6808     2.2309 H       
@<TRIPOS>BOND
   1    1    2 am
   2    1    5 1
   3    1   27 1
   4    2    3 2
   5    2    4 am
   6    4   28 1
   7    4   29 1
   8    5    6 1
   9    5    7 1
  10    5   30 1
  11    6   31 1
  12    6   32 1
  13    6   33 1
  14    7    8 ar
  15    7   12 ar
  16    8    9 ar
  17    8   34 1
  18    9   10 ar
  19    9   35 1
  20   10   11 ar
  21   10   17 1
  22   11   12 ar
  23   11   36 1
  24   12   37 1
  25   13   14 1
  26   13   17 1
  27   14   15 2
  28   14   18 1
  29   15   16 1
  30   16   17 2
  31   16   38 1
  32   18   19 1
  33   19   20 ar
  34   19   24 ar
  35   20   21 ar
  36   20   39 1
  37   21   22 ar
  38   21   40 1
  39   22   23 ar
  40   22   25 1
  41   23   24 ar
  42   23   41 1
  43   24   42 1
  44   25   26 1
  45   26   43 1
  46   26   44 1
  47   26   45 1

#	End of record

