#	Name: ASD01901297
#	Creating user name:	WinNT
#	Creation time:	15. 06. 2019 19:53

#	Modifying user name:	WinNT
#	Modification time:	15. 06. 2019 19:53

#	Program:	/corina/corina34_cracker 3.40 0067  02.08.2006

@<TRIPOS>MOLECULE
ASD01901297
  37   40    0    0    0
SMALL
NO_CHARGES


@<TRIPOS>ATOM
   1 C1            -0.2417     1.3641    -0.3045 C.ar    
   2 C2            -0.1042    -0.0269    -0.1534 C.ar    
   3 C3             1.1867    -0.5783     0.0523 C.ar    
   4 C4             2.3007     0.2781     0.1006 C.ar    
   5 C5             2.1282     1.6199    -0.0498 C.ar    
   6 C6             0.8601     2.1616    -0.2519 C.ar    
   7 N7            -1.1719    -0.8309    -0.2008 N.ar    
   8 C8            -1.0186    -2.1347    -0.0559 C.ar    
   9 C9             0.2711    -2.6852     0.1494 C.ar    
  10 N10            1.3311    -1.8999     0.1978 N.ar    
  11 C11           -2.1999    -3.0255    -0.1078 C.ar    
  12 C12            0.4304    -4.1491     0.3105 C.ar    
  13 C13            1.4442    -4.8222    -0.3708 C.ar    
  14 C14            1.5876    -6.1859    -0.2167 C.ar    
  15 C15            0.7282    -6.8854     0.6116 C.ar    
  16 C16           -0.2793    -6.2233     1.2901 C.ar    
  17 C17           -0.4292    -4.8589     1.1486 C.ar    
  18 C18           -4.4579    -3.5217     0.5408 C.ar    
  19 C19           -4.4103    -4.6930    -0.2041 C.ar    
  20 C20           -3.2552    -5.0329    -0.8966 C.ar    
  21 C21           -2.1537    -4.2057    -0.8509 C.ar    
  22 C22           -3.3602    -2.6898     0.5909 C.ar    
  23 O23           -5.4939    -5.5105    -0.2513 O.3     
  24 H24           -1.2175     1.7978    -0.4662 H       
  25 H25            3.2895    -0.1271     0.2569 H       
  26 H26            2.9866     2.2743    -0.0116 H       
  27 H27            0.7501     3.2296    -0.3684 H       
  28 H28            2.1154    -4.2773    -1.0180 H       
  29 H29            2.3720    -6.7083    -0.7440 H       
  30 H30            0.8441    -7.9527     0.7288 H       
  31 H31           -0.9472    -6.7747     1.9354 H       
  32 H32           -1.2161    -4.3430     1.6788 H       
  33 H33           -5.3578    -3.2602     1.0777 H       
  34 H34           -3.2215    -5.9445    -1.4749 H       
  35 H35           -1.2561    -4.4705    -1.3899 H       
  36 H36           -3.3978    -1.7793     1.1706 H       
  37 H37           -6.1068    -5.3099    -0.9719 H       
@<TRIPOS>BOND
   1    1    2 ar
   2    1    6 ar
   3    1   24 1
   4    2    3 ar
   5    2    7 ar
   6    3    4 ar
   7    3   10 ar
   8    4    5 ar
   9    4   25 1
  10    5    6 ar
  11    5   26 1
  12    6   27 1
  13    7    8 ar
  14    8    9 ar
  15    8   11 1
  16    9   10 ar
  17    9   12 1
  18   11   22 ar
  19   11   21 ar
  20   12   13 ar
  21   12   17 ar
  22   13   14 ar
  23   13   28 1
  24   14   15 ar
  25   14   29 1
  26   15   16 ar
  27   15   30 1
  28   16   17 ar
  29   16   31 1
  30   17   32 1
  31   18   19 ar
  32   18   22 ar
  33   18   33 1
  34   19   20 ar
  35   19   23 1
  36   20   21 ar
  37   20   34 1
  38   21   35 1
  39   22   36 1
  40   23   37 1

#	End of record

