#	Name: ASD01100008
#	Creating user name:	WinNT
#	Creation time:	15. 06. 2019 18:58

#	Modifying user name:	WinNT
#	Modification time:	15. 06. 2019 18:58

#	Program:	/corina/corina34_cracker 3.40 0067  02.08.2006

@<TRIPOS>MOLECULE
ASD01100008
  37   38    0    0    0
SMALL
NO_CHARGES


@<TRIPOS>ATOM
   1 C1             2.8193     6.3476    -5.0830 C.ar    
   2 C2             1.5120     6.4311    -4.6378 C.ar    
   3 C3             1.1084     5.6963    -3.5372 C.ar    
   4 C4             2.0113     4.8795    -2.8830 C.ar    
   5 C5             3.3174     4.7965    -3.3283 C.ar    
   6 C6             3.7213     5.5304    -4.4280 C.ar    
   7 C7             4.3014     3.9061    -2.6143 C.3     
   8 C8             4.8259     2.8676    -3.5721 C.2     
   9 N9             5.9447     3.0722    -4.2054 N.2     
  10 C10            5.4649     4.7497    -2.0894 C.3     
  11 C11            4.9324     5.8041    -1.1169 C.3     
  12 C12            6.4640     3.8457    -1.3645 C.3     
  13 Cl13           0.3787     7.4577    -5.4597 Cl      
  14 O14            4.1366     1.7268    -3.7730 O.3     
  15 C15            6.3652     2.1843    -5.1510 C.2     
  16 N16            6.2002     2.3144    -6.4382 N.2     
  17 C17            6.6747     1.3524    -7.1999 C.2     
  18 C18            7.2753     0.3459    -6.5609 C.2     
  19 S19            7.2253     0.6804    -4.8312 S.3     
  20 C20            3.9522     1.3017    -5.1491 C.3     
  21 H21            3.1338     6.9175    -5.9448 H       
  22 H22            0.0881     5.7613    -3.1890 H       
  23 H23            1.6964     4.3062    -2.0236 H       
  24 H24            4.7418     5.4652    -4.7754 H       
  25 H25            3.8049     3.4122    -1.7790 H       
  26 H26            5.9614     5.2436    -2.9246 H       
  27 H27            4.4359     5.3102    -0.2817 H       
  28 H28            5.7613     6.4051    -0.7430 H       
  29 H29            4.2206     6.4481    -1.6334 H       
  30 H30            6.8434     3.0945    -2.0572 H       
  31 H31            7.2929     4.4467    -0.9905 H       
  32 H32            5.9675     3.3518    -0.5292 H       
  33 H33            6.5836     1.3754    -8.2758 H       
  34 H34            7.7198    -0.5223    -7.0246 H       
  35 H35            3.7425     2.1707    -5.7728 H       
  36 H36            4.8591     0.8112    -5.5025 H       
  37 H37            3.1165     0.6042    -5.2050 H       
@<TRIPOS>BOND
   1    1    2 ar
   2    1    6 ar
   3    1   21 1
   4    2    3 ar
   5    2   13 1
   6    3    4 ar
   7    3   22 1
   8    4    5 ar
   9    4   23 1
  10    5    6 ar
  11    5    7 1
  12    6   24 1
  13    7    8 1
  14    7   10 1
  15    7   25 1
  16    8    9 2
  17    8   14 1
  18    9   15 1
  19   10   11 1
  20   10   12 1
  21   10   26 1
  22   11   27 1
  23   11   28 1
  24   11   29 1
  25   12   30 1
  26   12   31 1
  27   12   32 1
  28   14   20 1
  29   15   16 2
  30   15   19 1
  31   16   17 1
  32   17   18 2
  33   17   33 1
  34   18   19 1
  35   18   34 1
  36   20   35 1
  37   20   36 1
  38   20   37 1

#	End of record

