#	Name: ASD01884122
#	Creating user name:	WinNT
#	Creation time:	15. 06. 2019 19:47

#	Modifying user name:	WinNT
#	Modification time:	15. 06. 2019 19:47

#	Program:	/corina/corina34_cracker 3.40 0067  02.08.2006

@<TRIPOS>MOLECULE
ASD01884122
  45   48    0    0    0
SMALL
NO_CHARGES


@<TRIPOS>ATOM
   1 C1            -0.3993     0.7126    -1.0932 C.2     
   2 C2             0.0021    -0.0041     0.0020 C.2     
   3 C3            -0.8216    -0.0452     1.1477 C.2     
   4 C4            -1.9955     0.6161     1.1647 C.2     
   5 N5            -2.4052     1.3331     0.0783 N.pl3   
   6 C6            -1.6255     1.3990    -1.0507 C.2     
   7 N7            -2.2761     2.1549    -1.9222 N.2     
   8 C8            -3.5126     2.0826    -0.1903 C.2     
   9 N9            -3.3864     2.5487    -1.4050 N.2     
  10 C10           -4.6714     2.3262     0.7418 C.3     
  11 Cl11           0.5965     0.7788    -2.5137 Cl      
  12 N12            1.2150    -0.6886    -0.0142 N.pl3   
  13 C13            1.2491    -2.1539     0.0878 C.3     
  14 C14            2.1821    -2.5465     1.2376 C.3     
  15 C15            3.5520    -1.8995     1.0214 C.3     
  16 C16            3.4039    -0.3763     1.0182 C.3     
  17 C17            2.4844     0.0406    -0.1397 C.3     
  18 C18            4.4828    -2.3111     2.1328 C.ar    
  19 C19            5.8449    -2.1154     2.0018 C.ar    
  20 C20            6.6987    -2.4930     3.0213 C.ar    
  21 C21            6.1903    -3.0659     4.1720 C.ar    
  22 C22            4.8280    -3.2608     4.3034 C.ar    
  23 C23            3.9739    -2.8792     3.2857 C.ar    
  24 F24            4.0772    -2.3192    -0.2055 F       
  25 C25           -4.3986     3.5779     1.5783 C.3     
  26 F26           -4.2419     4.6801     0.7310 F       
  27 F27           -5.4743     3.8041     2.4437 F       
  28 F28           -3.2299     3.3941     2.3252 F       
  29 H29           -0.5097    -0.6094     2.0142 H       
  30 H30           -2.6181     0.5781     2.0463 H       
  31 H31           -5.5819     2.4694     0.1599 H       
  32 H32           -4.7934     1.4675     1.4020 H       
  33 H33            0.2455    -2.5297     0.2869 H       
  34 H34            1.6214    -2.5766    -0.8454 H       
  35 H35            1.7614    -2.2007     2.1818 H       
  36 H36            2.2918    -3.6307     1.2631 H       
  37 H37            2.9716    -0.0509     1.9645 H       
  38 H38            4.3831     0.0842     0.8875 H       
  39 H39            2.9598    -0.2035    -1.0898 H       
  40 H40            2.2952     1.1128    -0.0883 H       
  41 H41            6.2421    -1.6678     1.1027 H       
  42 H42            7.7630    -2.3408     2.9186 H       
  43 H43            6.8574    -3.3616     4.9682 H       
  44 H44            4.4309    -3.7087     5.2024 H       
  45 H45            2.9096    -3.0314     3.3884 H       
@<TRIPOS>BOND
   1    1    2 2
   2    1   11 1
   3    1    6 1
   4    2    3 1
   5    2   12 1
   6    3    4 2
   7    3   29 1
   8    4    5 1
   9    4   30 1
  10    5    6 1
  11    5    8 1
  12    6    7 2
  13    7    9 1
  14    8    9 2
  15    8   10 1
  16   10   25 1
  17   10   31 1
  18   10   32 1
  19   12   13 1
  20   12   17 1
  21   13   14 1
  22   13   33 1
  23   13   34 1
  24   14   15 1
  25   14   35 1
  26   14   36 1
  27   15   16 1
  28   15   18 1
  29   15   24 1
  30   16   17 1
  31   16   37 1
  32   16   38 1
  33   17   39 1
  34   17   40 1
  35   18   19 ar
  36   18   23 ar
  37   19   20 ar
  38   19   41 1
  39   20   21 ar
  40   20   42 1
  41   21   22 ar
  42   21   43 1
  43   22   23 ar
  44   22   44 1
  45   23   45 1
  46   25   26 1
  47   25   27 1
  48   25   28 1

#	End of record

