#	Name: ASD04840091
#	Creating user name:	WinNT
#	Creation time:	15. 06. 2019 20:52

#	Modifying user name:	WinNT
#	Modification time:	15. 06. 2019 20:52

#	Program:	/corina/corina34_cracker 3.40 0067  02.08.2006

@<TRIPOS>MOLECULE
ASD04840091
  49   52    0    0    0
SMALL
NO_CHARGES


@<TRIPOS>ATOM
   1 C1             0.2235     1.6538     0.7968 C.ar    
   2 C2             0.4012     0.2783     1.1033 C.ar    
   3 N3             2.6513     0.7760     1.6110 N.ar    
   4 C4             2.4361     2.0370     1.3156 C.ar    
   5 N5             1.2552     2.4755     0.9177 N.ar    
   6 C6            -0.5398    -0.8205     1.0589 C.2     
   7 C7            -0.0326    -2.0004     1.4165 C.2     
   8 S8             1.6625    -1.8598     1.8427 S.3     
   9 C9             1.6716    -0.1323     1.5199 C.ar    
  10 N10           -1.0052     2.1264     0.3737 N.pl3   
  11 C11           -1.2071     3.5631     0.1706 C.3     
  12 P12           -1.2824     3.9196    -1.6157 P.3     
  13 O13           -2.7136     3.4624    -2.1943 O.3     
  14 O14           -1.0859     5.4993    -1.8564 O.3     
  15 O15           -0.2085     3.1771    -2.3126 O.2     
  16 C16           -0.8001    -3.2636     1.4501 C.ar    
  17 C17           -0.1784    -4.4512     1.8397 C.ar    
  18 C18           -0.8996    -5.6268     1.8691 C.ar    
  19 C19           -2.2367    -5.6311     1.5136 C.ar    
  20 C20           -2.8598    -4.4570     1.1263 C.ar    
  21 C21           -2.1502    -3.2726     1.0982 C.ar    
  22 C22           -3.0180    -6.9193     1.5478 C.3     
  23 Cl23          -4.5378    -4.4726     0.6814 Cl      
  24 C24           -2.5182     3.9924     0.8320 C.3     
  25 C25           -2.6593     5.4901     0.7421 C.ar    
  26 C26           -2.1729     7.6737     1.5954 C.ar    
  27 C27           -2.0435     6.2999     1.6780 C.ar    
  28 C28           -3.4000     6.0544    -0.2796 C.ar    
  29 C29           -3.5295     7.4282    -0.3621 C.ar    
  30 C30           -2.9187     8.2377     0.5773 C.ar    
  31 H31            3.2517     2.7397     1.4019 H       
  32 H32           -1.5701    -0.6946     0.7604 H       
  33 H33           -1.7335     1.5065     0.2114 H       
  34 H34           -0.3782     4.1130     0.6162 H       
  35 H35           -2.9320     2.5372    -2.0174 H       
  36 H36           -0.2771     5.8589    -1.4670 H       
  37 H37            0.8653    -4.4497     2.1172 H       
  38 H38           -0.4192    -6.5460     2.1701 H       
  39 H39           -2.6380    -2.3562     0.8002 H       
  40 H40           -3.4667    -7.0461     2.5330 H       
  41 H41           -3.8030    -6.8882     0.7922 H       
  42 H42           -2.3493    -7.7553     1.3427 H       
  43 H43           -3.3556     3.5172     0.3211 H       
  44 H44           -2.5128     3.6903     1.8793 H       
  45 H45           -1.6920     8.3063     2.3268 H       
  46 H46           -1.4614     5.8591     2.4738 H       
  47 H47           -3.8772     5.4220    -1.0136 H       
  48 H48           -4.1076     7.8691    -1.1608 H       
  49 H49           -3.0199     9.3110     0.5128 H       
@<TRIPOS>BOND
   1    1    2 ar
   2    1    5 ar
   3    1   10 1
   4    2    9 ar
   5    2    6 1
   6    3    4 ar
   7    3    9 ar
   8    4    5 ar
   9    4   31 1
  10    6    7 2
  11    6   32 1
  12    7    8 1
  13    7   16 1
  14    8    9 1
  15   10   11 1
  16   10   33 1
  17   11   12 1
  18   11   24 1
  19   11   34 1
  20   12   13 1
  21   12   14 1
  22   12   15 2
  23   13   35 1
  24   14   36 1
  25   16   17 ar
  26   16   21 ar
  27   17   18 ar
  28   17   37 1
  29   18   19 ar
  30   18   38 1
  31   19   20 ar
  32   19   22 1
  33   20   21 ar
  34   20   23 1
  35   21   39 1
  36   22   40 1
  37   22   41 1
  38   22   42 1
  39   24   25 1
  40   24   43 1
  41   24   44 1
  42   25   28 ar
  43   25   27 ar
  44   26   27 ar
  45   26   30 ar
  46   26   45 1
  47   27   46 1
  48   28   29 ar
  49   28   47 1
  50   29   30 ar
  51   29   48 1
  52   30   49 1

#	End of record

