#	Name: ASD03320053
#	Creating user name:	WinNT
#	Creation time:	15. 06. 2019 20:36

#	Modifying user name:	WinNT
#	Modification time:	15. 06. 2019 20:36

#	Program:	/corina/corina34_cracker 3.40 0067  02.08.2006

@<TRIPOS>MOLECULE
ASD03320053
  43   44    0    0    0
SMALL
NO_CHARGES


@<TRIPOS>ATOM
   1 C1            -0.0077     1.3433    -0.1945 C.ar    
   2 C2             0.0217    -0.0349     0.0275 C.ar    
   3 C3            -1.1538    -0.7587     0.0437 C.ar    
   4 C4            -2.3643    -0.1254    -0.1598 C.ar    
   5 C5            -2.4069     1.2505    -0.3826 C.ar    
   6 C6            -1.2278     1.9876    -0.3942 C.ar    
   7 C7             1.2512     2.1182    -0.2118 C.2     
   8 O8             1.2237     3.3181    -0.4053 O.2     
   9 N9             2.4292     1.4944    -0.0131 N.am    
  10 C10            3.6279     2.2094    -0.1264 C.ar    
  11 C11           -3.7092     1.9281    -0.6014 C.ar    
  12 C12           -4.8977     1.1979    -0.5862 C.ar    
  13 C13           -6.0974     1.8847    -0.7973 C.ar    
  14 C14           -6.0585     3.2643    -1.0132 C.ar    
  15 N15           -4.9132     3.9142    -1.0193 N.ar    
  16 C16           -3.7622     3.3039    -0.8191 C.ar    
  17 C17            3.6885     3.5339     0.2864 C.ar    
  18 C18            4.8709     4.2382     0.1744 C.ar    
  19 C19            5.9979     3.6232    -0.3510 C.ar    
  20 C20            5.9382     2.3001    -0.7636 C.ar    
  21 C21            4.7582     1.5926    -0.6464 C.ar    
  22 O22            7.1616     4.3177    -0.4619 O.3     
  23 C23            8.2824     3.6222    -1.0115 C.3     
  24 F24            7.9755     3.1936    -2.3074 F       
  25 F25            9.3880     4.4784    -1.0531 F       
  26 F26            8.5810     2.5136    -0.2121 F       
  27 C27           -7.3465     1.1845    -0.7925 C.1     
  28 N28           -8.3374     0.6290    -0.7887 N.1     
  29 H29            0.9654    -0.5355     0.1865 H       
  30 H30           -1.1268    -1.8245     0.2158 H       
  31 H31           -3.2803    -0.6974    -0.1467 H       
  32 H32           -1.2564     3.0534    -0.5664 H       
  33 H33            2.4468     0.5502     0.2084 H       
  34 H34           -4.8914     0.1313    -0.4165 H       
  35 H35           -6.9788     3.8038    -1.1817 H       
  36 H36           -2.8470     3.8772    -0.8280 H       
  37 H37            2.8110     4.0130     0.6948 H       
  38 H38            4.9181     5.2683     0.4954 H       
  39 H39            6.8160     1.8221    -1.1728 H       
  40 H40            4.7119     0.5624    -0.9674 H       
  41 O41           14.3880    11.2352     5.7010 O.3     
  42 H42           14.4011    10.2683     5.6957 H       
  43 H43           15.2659    11.6405     5.6948 H       
@<TRIPOS>BOND
   1    1    2 ar
   2    1    7 1
   3    1    6 ar
   4    2    3 ar
   5    2   29 1
   6    3    4 ar
   7    3   30 1
   8    4    5 ar
   9    4   31 1
  10    5    6 ar
  11    5   11 1
  12    6   32 1
  13    7    8 2
  14    7    9 am
  15    9   10 1
  16    9   33 1
  17   10   17 ar
  18   10   21 ar
  19   11   12 ar
  20   11   16 ar
  21   12   13 ar
  22   12   34 1
  23   13   27 1
  24   13   14 ar
  25   14   15 ar
  26   14   35 1
  27   15   16 ar
  28   16   36 1
  29   17   18 ar
  30   17   37 1
  31   18   19 ar
  32   18   38 1
  33   19   20 ar
  34   19   22 1
  35   20   21 ar
  36   20   39 1
  37   21   40 1
  38   22   23 1
  39   23   24 1
  40   23   25 1
  41   23   26 1
  42   27   28 3
  43   41   42 1
  44   41   43 1

#	End of record

