#	Name: ASD03331527
#	Creating user name:	WinNT
#	Creation time:	15. 06. 2019 20:39

#	Modifying user name:	WinNT
#	Modification time:	15. 06. 2019 20:39

#	Program:	/corina/corina34_cracker 3.40 0067  02.08.2006

@<TRIPOS>MOLECULE
ASD03331527
  48   50    0    0    0
SMALL
NO_CHARGES


@<TRIPOS>ATOM
   1 C1             2.3890     1.4151    -0.0171 C.ar    
   2 C2             2.4161     0.0361    -0.0239 C.ar    
   3 C3             1.2207    -0.6838    -0.0132 C.ar    
   4 C4             0.0024    -0.0042     0.0042 C.ar    
   5 C5            -0.0146     1.3770     0.0108 C.ar    
   6 C6             1.1776     2.0871     0.0002 C.ar    
   7 C7             1.2452    -2.1628    -0.0209 C.2     
   8 N8             2.2972    -2.9399    -0.4146 N.pl3   
   9 C9             1.9136    -4.2370    -0.2836 C.2     
  10 C10            0.6413    -4.2338     0.2021 C.2     
  11 N11            0.2621    -2.9462     0.3546 N.2     
  12 C12            3.6043    -2.4684    -0.8808 C.3     
  13 C13            4.2137    -3.5080    -1.8242 C.3     
  14 C14            5.0375    -4.5154    -1.0237 C.3     
  15 C15            4.1512    -5.2616    -0.0314 C.3     
  16 C16            2.7519    -5.4395    -0.6290 C.3     
  17 C17           -0.1741    -5.4219     0.5103 C.2     
  18 O18            0.2823    -6.5352     0.3332 O.2     
  19 N19           -1.4256    -5.2748     0.9884 N.am    
  20 F20            1.1569     3.4379     0.0063 F       
  21 F21           -1.1932     2.0372     0.0277 F       
  22 C22           -2.2362    -6.4560     1.2948 C.3     
  23 C23           -1.5300    -7.2969     2.3602 C.3     
  24 C24           -3.6043    -6.0140     1.8181 C.3     
  25 C25           -2.4210    -7.2909     0.0260 C.3     
  26 H26            3.3142     1.9722    -0.0208 H       
  27 H27            3.3614    -0.4860    -0.0377 H       
  28 H28           -0.9255    -0.5569     0.0121 H       
  29 H29            3.4820    -1.5239    -1.4110 H       
  30 H30            4.2642    -2.3225    -0.0256 H       
  31 H31            3.4156    -4.0304    -2.3516 H       
  32 H32            4.8572    -3.0074    -2.5477 H       
  33 H33            5.4948    -5.2309    -1.7071 H       
  34 H34            5.8221    -3.9886    -0.4805 H       
  35 H35            4.5838    -6.2399     0.1779 H       
  36 H36            4.0809    -4.6901     0.8941 H       
  37 H37            2.2904    -6.3365    -0.2161 H       
  38 H38            2.8273    -5.5323    -1.7124 H       
  39 H39           -1.7896    -4.3869     1.1296 H       
  40 H40           -1.3984    -6.7021     3.2641 H       
  41 H41           -2.1331    -8.1757     2.5882 H       
  42 H42           -0.5554    -7.6118     1.9874 H       
  43 H43           -4.1074    -5.4149     1.0591 H       
  44 H44           -4.2074    -6.8928     2.0461 H       
  45 H45           -3.4727    -5.4192     2.7220 H       
  46 H46           -1.4464    -7.6058    -0.3468 H       
  47 H47           -3.0241    -8.1697     0.2540 H       
  48 H48           -2.9241    -6.6918    -0.7330 H       
@<TRIPOS>BOND
   1    1    2 ar
   2    1    6 ar
   3    1   26 1
   4    2    3 ar
   5    2   27 1
   6    3    4 ar
   7    3    7 1
   8    4    5 ar
   9    4   28 1
  10    5    6 ar
  11    5   21 1
  12    6   20 1
  13    7    8 1
  14    7   11 2
  15    8    9 1
  16    8   12 1
  17    9   10 2
  18    9   16 1
  19   10   11 1
  20   10   17 1
  21   12   13 1
  22   12   29 1
  23   12   30 1
  24   13   14 1
  25   13   31 1
  26   13   32 1
  27   14   15 1
  28   14   33 1
  29   14   34 1
  30   15   16 1
  31   15   35 1
  32   15   36 1
  33   16   37 1
  34   16   38 1
  35   17   18 2
  36   17   19 am
  37   19   22 1
  38   19   39 1
  39   22   23 1
  40   22   24 1
  41   22   25 1
  42   23   40 1
  43   23   41 1
  44   23   42 1
  45   24   43 1
  46   24   44 1
  47   24   45 1
  48   25   46 1
  49   25   47 1
  50   25   48 1

#	End of record

