#	Name: ASD01941057
#	Creating user name:	WinNT
#	Creation time:	15. 06. 2019 20:13

#	Modifying user name:	WinNT
#	Modification time:	15. 06. 2019 20:13

#	Program:	/corina/corina34_cracker 3.40 0067  02.08.2006

@<TRIPOS>MOLECULE
ASD01941057
  47   49    0    0    0
SMALL
NO_CHARGES


@<TRIPOS>ATOM
   1 C1            -0.8779     1.3875     0.3157 C.3     
   2 C2            -1.3596    -0.0386     0.5844 C.3     
   3 N3            -2.6510    -0.0878     1.2525 N.am    
   4 C4            -2.7062    -0.0042     2.6015 C.2     
   5 C5            -1.4654     0.4385     3.2706 C.2     
   6 C6            -0.7331     1.4798     2.8035 C.2     
   7 C7            -1.1116     2.2529     1.5570 C.3     
   8 O8            -3.7155    -0.2766     3.2254 O.2     
   9 C9             0.6155     1.3664    -0.0163 C.3     
  10 C10           -1.6539     1.9730    -0.8657 C.3     
  11 S11           -0.7396    -0.2478     4.7070 S.3     
  12 C12            0.5334     0.8878     4.6709 C.2     
  13 C13            0.3875     1.7383     3.5948 C.2     
  14 N14            1.5600     0.9466     5.5852 N.pl3   
  15 C15            1.6818    -0.0444     6.5643 C.ar    
  16 C16            1.4840    -1.3781     6.2328 C.ar    
  17 C17            1.6055    -2.3550     7.2020 C.ar    
  18 C18            1.9235    -2.0061     8.5021 C.ar    
  19 C19            2.1214    -0.6781     8.8365 C.ar    
  20 C20            2.0070     0.3032     7.8707 C.ar    
  21 Cl21           2.2554     1.9692     8.2906 Cl      
  22 I22            2.1051    -3.4915     9.9682 I       
  23 C23            1.3308     2.8227     3.3059 C.2     
  24 O24            2.2932     2.6172     2.5913 O.2     
  25 O25            1.1314     4.0480     3.8326 O.3     
  26 C26            1.7151     6.3855     4.1871 C.3     
  27 C27            2.1055     5.0734     3.5040 C.3     
  28 H28           -1.4360    -0.5677    -0.3655 H       
  29 H29           -0.6230    -0.5460     1.2074 H       
  30 H30           -3.4661    -0.1794     0.7347 H       
  31 H31           -0.5015     3.1537     1.4904 H       
  32 H32           -2.1637     2.5329     1.6101 H       
  33 H33            0.7821     0.7534    -0.9021 H       
  34 H34            0.9595     2.3828    -0.2079 H       
  35 H35            1.1688     0.9480     0.8244 H       
  36 H36           -2.7181     1.9870    -0.6302 H       
  37 H37           -1.3109     2.9897    -1.0577 H       
  38 H38           -1.4856     1.3596    -1.7508 H       
  39 H39            2.1992     1.6754     5.5506 H       
  40 H40            1.2350    -1.6516     5.2181 H       
  41 H41            1.4517    -3.3924     6.9443 H       
  42 H42            2.3696    -0.4088     9.8526 H       
  43 H43            1.6913     6.2398     5.2671 H       
  44 H44            2.4464     7.1552     3.9404 H       
  45 H45            0.7295     6.6963     3.8406 H       
  46 H46            3.0911     4.7625     3.8505 H       
  47 H47            2.1294     5.2191     2.4240 H       
@<TRIPOS>BOND
   1    1    2 1
   2    1    9 1
   3    1   10 1
   4    1    7 1
   5    2    3 1
   6    2   28 1
   7    2   29 1
   8    3    4 am
   9    3   30 1
  10    4    5 1
  11    4    8 2
  12    5    6 2
  13    5   11 1
  14    6    7 1
  15    6   13 1
  16    7   31 1
  17    7   32 1
  18    9   33 1
  19    9   34 1
  20    9   35 1
  21   10   36 1
  22   10   37 1
  23   10   38 1
  24   11   12 1
  25   12   13 2
  26   12   14 1
  27   13   23 1
  28   14   15 1
  29   14   39 1
  30   15   16 ar
  31   15   20 ar
  32   16   17 ar
  33   16   40 1
  34   17   18 ar
  35   17   41 1
  36   18   19 ar
  37   18   22 1
  38   19   20 ar
  39   19   42 1
  40   20   21 1
  41   23   24 2
  42   23   25 1
  43   25   27 1
  44   26   27 1
  45   26   43 1
  46   26   44 1
  47   26   45 1
  48   27   46 1
  49   27   47 1

#	End of record

