#	Name: ASD03330204
#	Creating user name:	WinNT
#	Creation time:	15. 06. 2019 20:36

#	Modifying user name:	WinNT
#	Modification time:	15. 06. 2019 20:36

#	Program:	/corina/corina34_cracker 3.40 0067  02.08.2006

@<TRIPOS>MOLECULE
ASD03330204
  54   56    0    0    0
SMALL
NO_CHARGES


@<TRIPOS>ATOM
   1 C1            -0.0739     1.1814     0.6059 C.ar    
   2 C2            -0.0655    -0.2874     0.4274 C.2     
   3 N3            -1.1558    -1.1012     0.4843 N.pl3   
   4 C4            -0.7285    -2.3702     0.2715 C.2     
   5 C5             0.6169    -2.3177     0.0859 C.2     
   6 N6             0.9938    -1.0239     0.1821 N.2     
   7 C7             1.5040    -3.4648    -0.1781 C.2     
   8 N8             2.8272    -3.2693    -0.3434 N.am    
   9 C9             0.6015     2.0189    -0.2899 C.ar    
  10 O10            1.0419    -4.5877    -0.2467 O.2     
  11 C11            3.7089    -4.4095    -0.6058 C.3     
  12 C12            3.7155    -4.7147    -2.1050 C.3     
  13 C13            5.1078    -4.0769    -0.1547 C.2     
  14 C14            4.1091    -3.4556    -2.8801 C.3     
  15 C15            0.5671     3.3846    -0.0848 C.ar    
  16 N16           -0.0896     3.8992     0.9367 N.ar    
  17 C17           -0.7388     3.1455     1.8034 C.ar    
  18 C18           -0.7619     1.7725     1.6714 C.ar    
  19 O19            5.4832    -2.9237    -0.1431 O.2     
  20 N20            5.9418    -5.0610     0.2358 N.am    
  21 C21            7.2616    -4.7302     0.7790 C.3     
  22 C22            4.7244    -5.8280    -2.3944 C.3     
  23 C23           -2.5511    -0.7255     0.7261 C.3     
  24 C24           -3.4568    -1.8775     0.2771 C.3     
  25 C25           -2.9658    -3.1892     0.8966 C.3     
  26 C26           -1.6271    -3.5804     0.2562 C.3     
  27 C27            2.3196    -5.1657    -2.5398 C.3     
  28 Cl28           1.4693     1.3515    -1.6372 Cl      
  29 H29            3.1957    -2.3738    -0.2887 H       
  30 H30            3.3484    -5.2809    -0.0592 H       
  31 H31            5.1035    -3.1343    -2.5703 H       
  32 H32            4.1138    -3.6731    -3.9482 H       
  33 H33            3.3903    -2.6625    -2.6739 H       
  34 H34            1.0851     4.0395    -0.7697 H       
  35 H35           -1.2632     3.6102     2.6252 H       
  36 H36           -1.2958     1.1623     2.3848 H       
  37 H37            5.6682    -5.9883     0.1571 H       
  38 H38            7.8344    -4.1804     0.0322 H       
  39 H39            7.1435    -4.1155     1.6713 H       
  40 H40            7.7887    -5.6486     1.0375 H       
  41 H41            4.4130    -6.7412    -1.8874 H       
  42 H42            4.7703    -6.0064    -3.4687 H       
  43 H43            5.7085    -5.5293    -2.0334 H       
  44 H44           -2.6997    -0.5369     1.7894 H       
  45 H45           -2.7919     0.1720     0.1565 H       
  46 H46           -4.4790    -1.6831     0.6018 H       
  47 H47           -3.4307    -1.9572    -0.8096 H       
  48 H48           -2.8310    -3.0568     1.9701 H       
  49 H49           -3.6995    -3.9746     0.7151 H       
  50 H50           -1.7914    -3.9037    -0.7717 H       
  51 H51           -1.1677    -4.3871     0.8274 H       
  52 H52            1.6009    -4.3726    -2.3336 H       
  53 H53            2.3243    -5.3832    -3.6079 H       
  54 H54            2.0392    -6.0627    -1.9877 H       
@<TRIPOS>BOND
   1    1    2 1
   2    1    9 ar
   3    1   18 ar
   4    2    3 1
   5    2    6 2
   6    3    4 1
   7    3   23 1
   8    4    5 2
   9    4   26 1
  10    5    6 1
  11    5    7 1
  12    7    8 am
  13    7   10 2
  14    8   11 1
  15    8   29 1
  16    9   15 ar
  17    9   28 1
  18   11   12 1
  19   11   13 1
  20   11   30 1
  21   12   14 1
  22   12   22 1
  23   12   27 1
  24   13   19 2
  25   13   20 am
  26   14   31 1
  27   14   32 1
  28   14   33 1
  29   15   16 ar
  30   15   34 1
  31   16   17 ar
  32   17   18 ar
  33   17   35 1
  34   18   36 1
  35   20   21 1
  36   20   37 1
  37   21   38 1
  38   21   39 1
  39   21   40 1
  40   22   41 1
  41   22   42 1
  42   22   43 1
  43   23   24 1
  44   23   44 1
  45   23   45 1
  46   24   25 1
  47   24   46 1
  48   24   47 1
  49   25   26 1
  50   25   48 1
  51   25   49 1
  52   26   50 1
  53   26   51 1
  54   27   52 1
  55   27   53 1
  56   27   54 1

#	End of record

