#	Name: ASD01820050
#	Creating user name:	WinNT
#	Creation time:	15. 06. 2019 19:36

#	Modifying user name:	WinNT
#	Modification time:	15. 06. 2019 19:36

#	Program:	/corina/corina34_cracker 3.40 0067  02.08.2006

@<TRIPOS>MOLECULE
ASD01820050
  90   93    0    0    0
SMALL
NO_CHARGES


@<TRIPOS>ATOM
   1 N1            -1.1055     1.3307     0.5038 N.am    
   2 C2            -0.7418    -0.0473     0.1646 C.3     
   3 C3            -0.2017    -0.7534     1.4099 C.3     
   4 C4             0.0610    -2.2258     1.0876 C.3     
   5 N5             0.4417    -2.9356     2.3161 N.4     
   6 C6             0.2616    -4.3806     2.1226 C.3     
   7 C7             0.6581    -5.1199     3.4021 C.3     
   8 C8             0.4705    -6.6249     3.2005 C.3     
   9 C9             0.8670    -7.3641     4.4801 C.3     
  10 C10            0.6794    -8.8692     4.2785 C.3     
  11 C11            1.0759    -9.6084     5.5580 C.3     
  12 C12            1.8496    -2.6550     2.6275 C.3     
  13 C13           -0.4055    -2.4810     3.4268 C.3     
  14 N14            0.8958   -11.0534     5.3645 N.4     
  15 C15            1.2765   -11.7632     6.5930 C.3     
  16 C16            1.0889   -13.2682     6.3914 C.3     
  17 C17            1.4854   -14.0075     7.6709 C.3     
  18 N18            1.3058   -15.4486     7.4779 N.am    
  19 C19           -0.5121   -11.3341     5.0530 C.3     
  20 C20            1.7430   -11.5080     4.2538 C.3     
  21 C21            2.2552   -16.2778     7.0081 C.2     
  22 C22            1.7009   -17.6471     6.9560 C.ar    
  23 C23            0.3760   -17.5449     7.4259 C.ar    
  24 C24            0.1716   -16.1179     7.7526 C.2     
  25 C25            2.2015   -18.8797     6.5686 C.ar    
  26 C26            1.3948   -20.0042     6.6462 C.ar    
  27 C27            0.0953   -19.9039     7.1066 C.ar    
  28 C28           -0.4189   -18.6776     7.4979 C.ar    
  29 O29           -0.8512   -15.6301     8.1894 O.2     
  30 O30            3.3794   -15.9552     6.6808 O.2     
  31 C31           -0.2681     2.3806     0.4241 C.2     
  32 C32           -0.9955     3.5963     0.8461 C.ar    
  33 C33           -2.2997     3.1721     1.1709 C.ar    
  34 C34           -2.3224     1.7138     0.9304 C.2     
  35 C35           -0.6565     4.9346     0.9648 C.ar    
  36 C36           -1.6035     5.8471     1.4026 C.ar    
  37 C37           -2.8825     5.4310     1.7216 C.ar    
  38 C38           -3.2359     4.0956     1.6076 C.ar    
  39 O39            0.8914     2.3368     0.0656 O.2     
  40 O40           -3.2779     0.9828     1.0963 O.2     
  41 C41           -1.2361     7.3028     1.5322 C.3     
  42 C42            1.1036    -0.0865     1.8484 C.3     
  43 H43           -1.6224    -0.5763    -0.1998 H       
  44 H44            0.0246    -0.0405    -0.6104 H       
  45 H45           -0.9340    -0.6825     2.2141 H       
  46 H46           -0.8424    -2.6741     0.6741 H       
  47 H47            0.8692    -2.2999     0.3599 H       
  48 H48           -0.7831    -4.5888     1.8915 H       
  49 H49            0.8902    -4.7179     1.2984 H       
  50 H50            1.7028    -4.9116     3.6332 H       
  51 H51            0.0295    -4.7826     4.2262 H       
  52 H52           -0.5741    -6.8331     2.9694 H       
  53 H53            1.0991    -6.9622     2.3764 H       
  54 H54            1.9117    -7.1559     4.7111 H       
  55 H55            0.2384    -7.0268     5.3042 H       
  56 H56           -0.3652    -9.0774     4.0474 H       
  57 H57            1.3080    -9.2065     3.4544 H       
  58 H58            2.1206    -9.4002     5.7891 H       
  59 H59            0.4473    -9.2711     6.3821 H       
  60 H60            1.9569    -1.6086     2.9134 H       
  61 H61            2.1735    -3.2916     3.4509 H       
  62 H62            2.4631    -2.8565     1.7494 H       
  63 H63           -1.4502    -2.6892     3.1957 H       
  64 H64           -0.1230    -3.0077     4.3383 H       
  65 H65           -0.2719    -1.4088     3.5704 H       
  66 H66            2.3211   -11.5550     6.8241 H       
  67 H67            0.6479   -11.4259     7.4171 H       
  68 H68            0.0442   -13.4765     6.1603 H       
  69 H69            1.7175   -13.6056     5.5673 H       
  70 H70            2.5301   -13.7993     7.9020 H       
  71 H71            0.8568   -13.6702     8.4950 H       
  72 H72           -0.7945   -10.8074     4.1415 H       
  73 H73           -0.6457   -12.4063     4.9094 H       
  74 H74           -1.1407   -10.9968     5.8772 H       
  75 H75            2.7877   -11.2998     4.4849 H       
  76 H76            1.6094   -12.5802     4.1102 H       
  77 H77            1.4606   -10.9814     3.3422 H       
  78 H78            3.2158   -18.9638     6.2074 H       
  79 H79            1.7841   -20.9653     6.3445 H       
  80 H80           -0.5238   -20.7872     7.1617 H       
  81 H81           -1.4349   -18.6052     7.8568 H       
  82 H82            0.3415     5.2652     0.7176 H       
  83 H83           -3.6114     6.1514     2.0624 H       
  84 H84           -4.2369     3.7763     1.8576 H       
  85 H85           -1.4417     7.8146     0.5920 H       
  86 H86           -1.8251     7.7567     2.3292 H       
  87 H87           -0.1757     7.3903     1.7691 H       
  88 H88            1.0319     0.9899     1.6928 H       
  89 H89            1.2785    -0.2900     2.9049 H       
  90 H90            1.9305    -0.4844     1.2601 H       
@<TRIPOS>BOND
   1    1    2 1
   2    1   31 am
   3    1   34 am
   4    2    3 1
   5    2   43 1
   6    2   44 1
   7    3    4 1
   8    3   42 1
   9    3   45 1
  10    4    5 1
  11    4   46 1
  12    4   47 1
  13    5    6 1
  14    5   12 1
  15    5   13 1
  16    6    7 1
  17    6   48 1
  18    6   49 1
  19    7    8 1
  20    7   50 1
  21    7   51 1
  22    8    9 1
  23    8   52 1
  24    8   53 1
  25    9   10 1
  26    9   54 1
  27    9   55 1
  28   10   11 1
  29   10   56 1
  30   10   57 1
  31   11   14 1
  32   11   58 1
  33   11   59 1
  34   12   60 1
  35   12   61 1
  36   12   62 1
  37   13   63 1
  38   13   64 1
  39   13   65 1
  40   14   15 1
  41   14   19 1
  42   14   20 1
  43   15   16 1
  44   15   66 1
  45   15   67 1
  46   16   17 1
  47   16   68 1
  48   16   69 1
  49   17   18 1
  50   17   70 1
  51   17   71 1
  52   18   21 am
  53   18   24 am
  54   19   72 1
  55   19   73 1
  56   19   74 1
  57   20   75 1
  58   20   76 1
  59   20   77 1
  60   21   22 1
  61   21   30 2
  62   22   23 ar
  63   22   25 ar
  64   23   24 1
  65   23   28 ar
  66   24   29 2
  67   25   26 ar
  68   25   78 1
  69   26   27 ar
  70   26   79 1
  71   27   28 ar
  72   27   80 1
  73   28   81 1
  74   31   32 1
  75   31   39 2
  76   32   33 ar
  77   32   35 ar
  78   33   34 1
  79   33   38 ar
  80   34   40 2
  81   35   36 ar
  82   35   82 1
  83   36   37 ar
  84   36   41 1
  85   37   38 ar
  86   37   83 1
  87   38   84 1
  88   41   85 1
  89   41   86 1
  90   41   87 1
  91   42   88 1
  92   42   89 1
  93   42   90 1

#	End of record

