#	Name: ASD01918299
#	Creating user name:	WinNT
#	Creation time:	15. 06. 2019 20:11

#	Modifying user name:	WinNT
#	Modification time:	15. 06. 2019 20:11

#	Program:	/corina/corina34_cracker 3.40 0067  02.08.2006

@<TRIPOS>MOLECULE
ASD01918299
  43   46    0    0    0
SMALL
NO_CHARGES


@<TRIPOS>ATOM
   1 F1             0.0021    -0.0041     0.0020 F       
   2 C2            -0.0162     1.3468     0.0094 C.ar    
   3 C3            -1.2249     2.0214     0.0304 C.ar    
   4 C4            -1.2470     3.4031     0.0380 C.ar    
   5 C5            -0.0565     4.1156     0.0247 C.ar    
   6 N6            -0.0771     5.5169     0.0329 N.am    
   7 C7            -0.1125     6.2551    -1.2401 C.3     
   8 C8            -1.5035     6.8683    -1.4120 C.3     
   9 C9            -1.5863     8.2213    -0.7293 C.3     
  10 C10           -1.4867     8.1515     0.7837 C.3     
  11 C11           -0.0934     7.6867     1.2144 C.3     
  12 C12           -0.0700     6.1728     1.1942 C.2     
  13 O13           -0.0403     5.5547     2.2374 O.2     
  14 C14           -1.7550     9.5170     1.3621 C.2     
  15 N15           -1.0779    10.6003     1.1194 N.2     
  16 O16           -1.5411    11.5369     1.7353 O.3     
  17 C17           -2.5960    11.1268     2.4560 C.2     
  18 N18           -2.7395     9.8361     2.2164 N.2     
  19 C19           -3.4377    11.9596     3.3428 C.ar    
  20 C20           -3.1610    13.3190     3.4817 C.ar    
  21 C21           -3.9577    14.0861     4.3148 C.ar    
  22 C22           -5.0060    13.4679     4.9823 C.ar    
  23 Cl23          -6.0350    14.3846     6.0380 Cl      
  24 C24           -5.2235    12.1114     4.7972 C.ar    
  25 N25           -4.4539    11.4072     3.9955 N.ar    
  26 C26            1.1572     3.4370     0.0037 C.ar    
  27 F27            2.3182     4.1277    -0.0093 F       
  28 C28            1.1743     2.0544     0.0019 C.ar    
  29 H29           -2.1518     1.4672     0.0404 H       
  30 H30           -2.1906     3.9282     0.0540 H       
  31 H31            0.6368     7.0466    -1.2248 H       
  32 H32            0.0905     5.5719    -2.0648 H       
  33 H33           -1.7128     6.9896    -2.4748 H       
  34 H34           -2.2461     6.2005    -0.9753 H       
  35 H35           -0.7776     8.8495    -1.1027 H       
  36 H36           -2.5354     8.6873    -0.9944 H       
  37 H37           -2.2313     7.4503     1.1604 H       
  38 H38            0.6530     8.0766     0.5223 H       
  39 H39            0.1162     8.0435     2.2228 H       
  40 H40           -2.3366    13.7674     2.9472 H       
  41 H41           -3.7676    15.1415     4.4427 H       
  42 H42           -6.0380    11.6269     5.3152 H       
  43 H43            2.1162     1.5262    -0.0096 H       
@<TRIPOS>BOND
   1    1    2 1
   2    2   28 ar
   3    2    3 ar
   4    3    4 ar
   5    3   29 1
   6    4    5 ar
   7    4   30 1
   8    5    6 1
   9    5   26 ar
  10    6   12 am
  11    6    7 1
  12    7    8 1
  13    7   31 1
  14    7   32 1
  15    8    9 1
  16    8   33 1
  17    8   34 1
  18    9   10 1
  19    9   35 1
  20    9   36 1
  21   10   11 1
  22   10   14 1
  23   10   37 1
  24   11   12 1
  25   11   38 1
  26   11   39 1
  27   12   13 2
  28   14   18 1
  29   14   15 2
  30   15   16 1
  31   16   17 1
  32   17   18 2
  33   17   19 1
  34   19   25 ar
  35   19   20 ar
  36   20   21 ar
  37   20   40 1
  38   21   22 ar
  39   21   41 1
  40   22   23 1
  41   22   24 ar
  42   24   25 ar
  43   24   42 1
  44   26   27 1
  45   26   28 ar
  46   28   43 1

#	End of record

