#	Name: ASD04882382
#	Creating user name:	WinNT
#	Creation time:	15. 06. 2019 20:54

#	Modifying user name:	WinNT
#	Modification time:	15. 06. 2019 20:54

#	Program:	/corina/corina34_cracker 3.40 0067  02.08.2006

@<TRIPOS>MOLECULE
ASD04882382
  76   80    0    0    0
SMALL
NO_CHARGES


@<TRIPOS>ATOM
   1 N1            -0.0169     1.3967     0.0097 N.am    
   2 C2             0.1108     0.0023    -0.0344 C.ar    
   3 C3            -1.0259    -0.8070     0.0451 C.ar    
   4 C4            -0.9006    -2.1909     0.0010 C.ar    
   5 C5             0.3433    -2.7693    -0.1207 C.ar    
   6 C6             1.4842    -1.9658    -0.2007 C.ar    
   7 C7             1.3605    -0.5741    -0.1623 C.ar    
   8 N8            -2.2855    -0.2265     0.1692 N.3     
   9 C9            -3.1515    -0.6015    -0.9574 C.3     
  10 C10           -2.9077    -0.5872     1.4507 C.3     
  11 C11           -4.2520     0.1325     1.5825 C.3     
  12 N12           -5.1180    -0.2424     0.4560 N.3     
  13 C13           -4.4958     0.1182    -0.8256 C.3     
  14 C14            2.8165    -2.5856    -0.3312 C.2     
  15 O15            3.8085    -1.8858    -0.4007 O.2     
  16 C16            0.9203     2.1777    -0.5630 C.2     
  17 C17            0.7430     3.6329    -0.5940 C.2     
  18 O18            1.9139     1.6751    -1.0546 O.2     
  19 C19           -6.3814     0.3399     0.5804 C.ar    
  20 C20           -7.5127    -0.4620     0.6596 C.ar    
  21 C21           -6.5089     1.7224     0.6309 C.ar    
  22 C22           -7.7595     2.2948     0.7539 C.ar    
  23 C23           -8.8844     1.4935     0.8273 C.ar    
  24 C24           -8.7606     0.1171     0.7826 C.ar    
  25 O25           -0.3054     4.3148    -0.0880 O.3     
  26 C26            1.6130     4.5360    -1.1348 C.2     
  27 C27            1.0476     5.8062    -0.9423 C.2     
  28 C28           -0.1262     5.6255    -0.2976 C.2     
  29 N29            2.9342    -3.9276    -0.3732 N.am    
  30 C30           -7.3787    -1.9623     0.6110 C.3     
  31 C31            4.2573    -4.5431    -0.5027 C.3     
  32 C32            4.1113    -6.0660    -0.5262 C.3     
  33 C33            5.4930    -6.7088    -0.6614 C.3     
  34 C34            5.3470    -8.2317    -0.6849 C.3     
  35 C35            6.7463    -8.8992    -0.6948 C.3     
  36 C36            4.6394    -8.6734    -1.9780 C.3     
  37 C37            4.8082   -10.1973    -2.1381 C.3     
  38 S38            6.3749   -10.5953    -1.2820 S.o2    
  39 O39            7.3490   -10.9858    -2.2400 O.2     
  40 O40            6.1023   -11.4311    -0.1656 O.2     
  41 H41           -0.7820     1.8000     0.4490 H       
  42 H42           -1.7807    -2.8138     0.0626 H       
  43 H43            0.4374    -3.8447    -0.1540 H       
  44 H44            2.2403     0.0493    -0.2240 H       
  45 H45           -2.6748    -0.3129    -1.8942 H       
  46 H46           -3.3136    -1.6793    -0.9484 H       
  47 H47           -3.0671    -1.6648     1.4871 H       
  48 H48           -2.2533    -0.2882     2.2696 H       
  49 H49           -4.7287    -0.1560     2.5193 H       
  50 H50           -4.0899     1.2104     1.5735 H       
  51 H51           -4.3364     1.1959    -0.8619 H       
  52 H52           -5.1501    -0.1807    -1.6444 H       
  53 H53           -5.6309     2.3487     0.5744 H       
  54 H54           -7.8593     3.3695     0.7933 H       
  55 H55           -9.8612     1.9437     0.9242 H       
  56 H56           -9.6410    -0.5058     0.8400 H       
  57 H57            2.5540     4.3156    -1.6169 H       
  58 H58            1.4721     6.7506    -1.2492 H       
  59 H59           -0.8078     6.4089    -0.0007 H       
  60 H60            2.1429    -4.4858    -0.3178 H       
  61 H61           -7.2569    -2.3492     1.6227 H       
  62 H62           -8.2743    -2.3927     0.1628 H       
  63 H63           -6.5081    -2.2301     0.0123 H       
  64 H64            4.7246    -4.2087    -1.4290 H       
  65 H65            4.8785    -4.2507     0.3438 H       
  66 H66            3.6440    -6.4005     0.4000 H       
  67 H67            3.4900    -6.3584    -1.3728 H       
  68 H68            5.9603    -6.3744    -1.5877 H       
  69 H69            6.1143    -6.4164     0.1851 H       
  70 H70            4.7803    -8.5655     0.1843 H       
  71 H71            7.4142    -8.3875    -1.3877 H       
  72 H72            7.1714    -8.9217     0.3087 H       
  73 H73            3.5794    -8.4263    -1.9184 H       
  74 H74            5.0850    -8.1635    -2.8321 H       
  75 H75            3.9763   -10.7218    -1.6681 H       
  76 H76            4.8758   -10.4618    -3.1934 H       
@<TRIPOS>BOND
   1    1    2 1
   2    1   16 am
   3    1   41 1
   4    2    3 ar
   5    2    7 ar
   6    3    4 ar
   7    3    8 1
   8    4    5 ar
   9    4   42 1
  10    5    6 ar
  11    5   43 1
  12    6    7 ar
  13    6   14 1
  14    7   44 1
  15    8    9 1
  16    8   10 1
  17    9   13 1
  18    9   45 1
  19    9   46 1
  20   10   11 1
  21   10   47 1
  22   10   48 1
  23   11   12 1
  24   11   49 1
  25   11   50 1
  26   12   13 1
  27   12   19 1
  28   13   51 1
  29   13   52 1
  30   14   15 2
  31   14   29 am
  32   16   18 2
  33   16   17 1
  34   17   25 1
  35   17   26 2
  36   19   20 ar
  37   19   21 ar
  38   20   30 1
  39   20   24 ar
  40   21   22 ar
  41   21   53 1
  42   22   23 ar
  43   22   54 1
  44   23   24 ar
  45   23   55 1
  46   24   56 1
  47   25   28 1
  48   26   27 1
  49   26   57 1
  50   27   28 2
  51   27   58 1
  52   28   59 1
  53   29   31 1
  54   29   60 1
  55   30   61 1
  56   30   62 1
  57   30   63 1
  58   31   32 1
  59   31   64 1
  60   31   65 1
  61   32   33 1
  62   32   66 1
  63   32   67 1
  64   33   34 1
  65   33   68 1
  66   33   69 1
  67   34   35 1
  68   34   36 1
  69   34   70 1
  70   35   38 1
  71   35   71 1
  72   35   72 1
  73   36   37 1
  74   36   73 1
  75   36   74 1
  76   37   38 1
  77   37   75 1
  78   37   76 1
  79   38   39 2
  80   38   40 2

#	End of record

