#	Name: ASD01916439
#	Creating user name:	WinNT
#	Creation time:	15. 06. 2019 20:07

#	Modifying user name:	WinNT
#	Modification time:	15. 06. 2019 20:07

#	Program:	/corina/corina34_cracker 3.40 0067  02.08.2006

@<TRIPOS>MOLECULE
ASD01916439
  36   37    0    0    0
SMALL
NO_CHARGES


@<TRIPOS>ATOM
   1 C1            -0.0180     1.4727     0.0101 C.2     
   2 C2             0.0021    -0.0041     0.0020 C.ar    
   3 C3             0.0231    -0.7127     1.2063 C.ar    
   4 C4             0.0413    -2.0935     1.1905 C.ar    
   5 C5             0.0387    -2.7750    -0.0132 C.ar    
   6 C6             0.0179    -2.0806    -1.2094 C.ar    
   7 C7            -0.0058    -0.6998    -1.2099 C.ar    
   8 O8             1.0265     2.0948     0.0035 O.2     
   9 N9            -1.1942     2.1306     0.0193 N.am    
  10 C10           -1.2140     3.5955     0.0274 C.3     
  11 C11           -2.6633     4.0858     0.0369 C.3     
  12 C12           -2.6833     5.5577     0.0450 C.1     
  13 C13           -2.6992     6.7315     0.0514 C.1     
  14 C14           -2.7186     8.1634     0.0593 C.ar    
  15 C15           -3.9394     8.8392     0.0688 C.ar    
  16 C16           -3.9414    10.2227     0.0763 C.ar    
  17 C17           -2.7228    10.8874     0.0741 C.ar    
  18 C18           -1.5501    10.1550     0.0646 C.ar    
  19 N19           -1.5747     8.8379     0.0630 N.ar    
  20 C20           -0.2253    10.8735     0.0617 C.3     
  21 F21            0.1911    11.0891     1.3798 F       
  22 Cl22          -0.0392     0.1695    -2.7122 Cl      
  23 Cl23           0.0270     0.1405     2.7181 Cl      
  24 H24            0.0579    -2.6425     2.1204 H       
  25 H25            0.0533    -3.8549    -0.0192 H       
  26 H26            0.0160    -2.6197    -2.1452 H       
  27 H27           -2.0275     1.6343     0.0205 H       
  28 H28           -0.7010     3.9609     0.9169 H       
  29 H29           -0.7094     3.9706    -0.8630 H       
  30 H30           -3.1764     3.7204    -0.8527 H       
  31 H31           -3.1679     3.7107     0.9272 H       
  32 H32           -4.8694     8.2901     0.0698 H       
  33 H33           -4.8705    10.7733     0.0834 H       
  34 H34           -2.6910    11.9669     0.0795 H       
  35 H35            0.5158    10.2670    -0.4589 H       
  36 H36           -0.3328    11.8316    -0.4467 H       
@<TRIPOS>BOND
   1    1    2 1
   2    1    8 2
   3    1    9 am
   4    2    3 ar
   5    2    7 ar
   6    3    4 ar
   7    3   23 1
   8    4    5 ar
   9    4   24 1
  10    5    6 ar
  11    5   25 1
  12    6    7 ar
  13    6   26 1
  14    7   22 1
  15    9   10 1
  16    9   27 1
  17   10   11 1
  18   10   28 1
  19   10   29 1
  20   11   12 1
  21   11   30 1
  22   11   31 1
  23   12   13 3
  24   13   14 1
  25   14   15 ar
  26   14   19 ar
  27   15   16 ar
  28   15   32 1
  29   16   17 ar
  30   16   33 1
  31   17   18 ar
  32   17   34 1
  33   18   19 ar
  34   18   20 1
  35   20   21 1
  36   20   35 1
  37   20   36 1

#	End of record

