#	Name: ASD03092818
#	Creating user name:	WinNT
#	Creation time:	15. 06. 2019 20:33

#	Modifying user name:	WinNT
#	Modification time:	15. 06. 2019 20:33

#	Program:	/corina/corina34_cracker 3.40 0067  02.08.2006

@<TRIPOS>MOLECULE
ASD03092818
  55   58    0    0    0
SMALL
NO_CHARGES


@<TRIPOS>ATOM
   1 C1            -2.7530     1.1661     0.9330 C.3     
   2 C2            -2.3284    -0.2658     0.7321 C.2     
   3 N3            -2.8517    -1.1013    -0.1197 N.2     
   4 N4            -2.2044    -2.3392    -0.0276 N.pl3   
   5 C5            -2.4965    -3.4779    -0.7887 C.ar    
   6 C6            -1.4767    -4.3392    -1.1718 C.ar    
   7 C7            -1.7681    -5.4616    -1.9219 C.ar    
   8 C8            -3.0737    -5.7280    -2.2919 C.ar    
   9 C9            -4.0913    -4.8721    -1.9124 C.ar    
  10 C10           -3.8073    -3.7513    -1.1570 C.ar    
  11 S11           -3.4412    -7.1607    -3.2495 S.o2    
  12 C12           -3.7644    -8.4556    -2.0209 C.3     
  13 O13           -4.6344    -6.8222    -3.9429 O.2     
  14 O14           -2.2364    -7.4305    -3.9531 O.2     
  15 C15           -1.2325    -2.2428     0.9382 C.ar    
  16 N16           -0.3429    -3.0956     1.4239 N.ar    
  17 C17            0.5023    -2.7557     2.3723 C.ar    
  18 C18            1.4884    -3.7770     2.8778 C.3     
  19 C19            0.5094    -1.4815     2.9185 C.ar    
  20 C20           -0.4005    -0.5337     2.4537 C.ar    
  21 C21           -0.4266     0.8361     3.0088 C.2     
  22 O22           -0.6615     1.7820     2.2823 O.2     
  23 N23           -0.1899     1.0363     4.3205 N.am    
  24 C24           -0.1265     2.3375     4.8290 C.ar    
  25 C25            0.6853     3.2938     4.2240 C.ar    
  26 C26            1.5116     2.9498     3.0116 C.3     
  27 C27            0.7142     4.5692     4.7642 C.ar    
  28 C28           -0.0571     4.8491     5.8766 C.ar    
  29 N29           -0.8155     3.9207     6.4265 N.ar    
  30 C30           -0.8768     2.6969     5.9415 C.ar    
  31 C31           -1.7646     1.6753     6.6042 C.3     
  32 C32           -1.2935    -0.9234     1.4310 C.ar    
  33 H33           -2.1094     1.8216     0.3463 H       
  34 H34           -3.7868     1.2874     0.6095 H       
  35 H35           -2.6698     1.4251     1.9885 H       
  36 H36           -0.4568    -4.1314    -0.8837 H       
  37 H37           -0.9755    -6.1319    -2.2202 H       
  38 H38           -5.1099    -5.0824    -2.2036 H       
  39 H39           -4.6031    -3.0855    -0.8572 H       
  40 H40           -4.6047    -8.1592    -1.3931 H       
  41 H41           -4.0033    -9.3888    -2.5309 H       
  42 H42           -2.8794    -8.5968    -1.4004 H       
  43 H43            2.4034    -3.7215     2.2880 H       
  44 H44            1.7176    -3.5740     3.9239 H       
  45 H45            1.0575    -4.7741     2.7871 H       
  46 H46            1.2130    -1.2259     3.6970 H       
  47 H47           -0.0635     0.2778     4.9118 H       
  48 H48            0.9900     3.2763     2.1119 H       
  49 H49            2.4765     3.4528     3.0748 H       
  50 H50            1.6659     1.8716     2.9711 H       
  51 H51            1.3326     5.3360     4.3213 H       
  52 H52           -0.0382     5.8418     6.3016 H       
  53 H53           -1.1789     1.0902     7.3131 H       
  54 H54           -2.5719     2.1833     7.1318 H       
  55 H55           -2.1853     1.0137     5.8470 H       
@<TRIPOS>BOND
   1    1    2 1
   2    1   33 1
   3    1   34 1
   4    1   35 1
   5    2   32 1
   6    2    3 2
   7    3    4 1
   8    4    5 1
   9    4   15 1
  10    5   10 ar
  11    5    6 ar
  12    6    7 ar
  13    6   36 1
  14    7    8 ar
  15    7   37 1
  16    8    9 ar
  17    8   11 1
  18    9   10 ar
  19    9   38 1
  20   10   39 1
  21   11   12 1
  22   11   13 2
  23   11   14 2
  24   12   40 1
  25   12   41 1
  26   12   42 1
  27   15   32 ar
  28   15   16 ar
  29   16   17 ar
  30   17   18 1
  31   17   19 ar
  32   18   43 1
  33   18   44 1
  34   18   45 1
  35   19   20 ar
  36   19   46 1
  37   20   21 1
  38   20   32 ar
  39   21   22 2
  40   21   23 am
  41   23   24 1
  42   23   47 1
  43   24   30 ar
  44   24   25 ar
  45   25   26 1
  46   25   27 ar
  47   26   48 1
  48   26   49 1
  49   26   50 1
  50   27   28 ar
  51   27   51 1
  52   28   29 ar
  53   28   52 1
  54   29   30 ar
  55   30   31 1
  56   31   53 1
  57   31   54 1
  58   31   55 1

#	End of record

