#	Name: ASD01151027
#	Creating user name:	WinNT
#	Creation time:	15. 06. 2019 19:05

#	Modifying user name:	WinNT
#	Modification time:	15. 06. 2019 19:05

#	Program:	/corina/corina34_cracker 3.40 0067  02.08.2006

@<TRIPOS>MOLECULE
ASD01151027
  53   54    0    0    0
SMALL
NO_CHARGES


@<TRIPOS>ATOM
   1 C1            -0.2284     1.1045     0.0418 C.2     
   2 C2            -0.3593    -0.2679    -0.1154 C.2     
   3 N3            -1.6564    -0.5248    -0.3194 N.2     
   4 C4            -2.3386     0.5903    -0.2997 C.2     
   5 N5            -1.5093     1.6249    -0.0757 N.pl3   
   6 C6            -3.8291     0.6992    -0.4931 C.3     
   7 C7            -1.8864     3.0374     0.0184 C.3     
   8 C8             0.9666     1.8255     0.2795 C.2     
   9 O9             0.9297     3.1683     0.4112 O.3     
  10 O10            2.0270     1.2346     0.3653 O.2     
  11 C11            2.1730     3.8312     0.6496 C.3     
  12 C12            1.9330     5.3374     0.7699 C.3     
  13 N13            0.6683    -1.2036    -0.0702 N.am    
  14 C14           -4.5352     0.4672     0.8443 C.3     
  15 C15            0.3957    -2.5125    -0.2403 C.2     
  16 C16            1.4875    -3.5067    -0.1922 C.ar    
  17 O17           -0.7484    -2.8751    -0.4333 O.2     
  18 C18           -1.9584     3.6408    -1.3857 C.3     
  19 C19           -2.4813     5.0759    -1.2980 C.3     
  20 C20           -0.5622     3.6441    -2.0115 C.3     
  21 C21           -6.0384     0.6954     0.6737 C.3     
  22 C22            1.2083    -4.8635    -0.3681 C.ar    
  23 C23            2.2315    -5.7866    -0.3226 C.ar    
  24 C24            3.5343    -5.3704    -0.1030 C.ar    
  25 C25            3.8175    -4.0259     0.0726 C.ar    
  26 C26            2.8035    -3.0927     0.0236 C.ar    
  27 Cl27           4.8173    -6.5386    -0.0471 Cl      
  28 H28           -4.0755     1.6932    -0.8664 H       
  29 H29           -4.1579    -0.0508    -1.2124 H       
  30 H30           -2.8603     3.1221     0.5006 H       
  31 H31           -1.1419     3.5738     0.6067 H       
  32 H32            2.6120     3.4581     1.5750 H       
  33 H33            2.8533     3.6367    -0.1795 H       
  34 H34            1.2527     5.5319     1.5991 H       
  35 H35            2.8814     5.8430     0.9519 H       
  36 H36            1.4940     5.7105    -0.1554 H       
  37 H37            1.5812    -0.9143     0.0838 H       
  38 H38           -4.3583    -0.5560     1.1758 H       
  39 H39           -4.1441     1.1625     1.5870 H       
  40 H40           -2.6317     3.0458    -2.0028 H       
  41 H41           -1.8080     5.6709    -0.6809 H       
  42 H42           -2.5326     5.5058    -2.2983 H       
  43 H43           -3.4760     5.0735    -0.8522 H       
  44 H44           -0.6068     4.1078    -2.9970 H       
  45 H45            0.1198     4.2081    -1.3752 H       
  46 H46           -0.2049     2.6189    -2.1082 H       
  47 H47           -6.2153     1.7186     0.3422 H       
  48 H48           -6.4295     0.0001    -0.0690 H       
  49 H49           -6.5414     0.5301     1.6265 H       
  50 H50            0.1928    -5.1893    -0.5390 H       
  51 H51            2.0168    -6.8364    -0.4581 H       
  52 H52            4.8351    -3.7075     0.2442 H       
  53 H53            3.0255    -2.0447     0.1606 H       
@<TRIPOS>BOND
   1    1    2 2
   2    1    8 1
   3    1    5 1
   4    2    3 1
   5    2   13 1
   6    3    4 2
   7    4    5 1
   8    4    6 1
   9    5    7 1
  10    6   14 1
  11    6   28 1
  12    6   29 1
  13    7   18 1
  14    7   30 1
  15    7   31 1
  16    8    9 1
  17    8   10 2
  18    9   11 1
  19   11   12 1
  20   11   32 1
  21   11   33 1
  22   12   34 1
  23   12   35 1
  24   12   36 1
  25   13   15 am
  26   13   37 1
  27   14   21 1
  28   14   38 1
  29   14   39 1
  30   15   16 1
  31   15   17 2
  32   16   22 ar
  33   16   26 ar
  34   18   19 1
  35   18   20 1
  36   18   40 1
  37   19   41 1
  38   19   42 1
  39   19   43 1
  40   20   44 1
  41   20   45 1
  42   20   46 1
  43   21   47 1
  44   21   48 1
  45   21   49 1
  46   22   23 ar
  47   22   50 1
  48   23   24 ar
  49   23   51 1
  50   24   25 ar
  51   24   27 1
  52   25   26 ar
  53   25   52 1
  54   26   53 1

#	End of record

