#	Name: ASD02030155
#	Creating user name:	WinNT
#	Creation time:	15. 06. 2019 20:14

#	Modifying user name:	WinNT
#	Modification time:	15. 06. 2019 20:14

#	Program:	/corina/corina34_cracker 3.40 0067  02.08.2006

@<TRIPOS>MOLECULE
ASD02030155
  59   63    0    0    0
SMALL
NO_CHARGES


@<TRIPOS>ATOM
   1 N1            -0.0984     1.6654    -0.3311 N.am    
   2 C2            -0.1856     0.2012    -0.4223 C.3     
   3 C3            -0.9967    -0.3167     0.7719 C.3     
   4 N4            -2.2392     0.4622     0.8690 N.am    
   5 C5            -2.1519     1.9264     0.9601 C.3     
   6 C6            -1.3407     2.4440    -0.2285 C.3     
   7 C7             1.0996     2.2828    -0.3360 C.2     
   8 C8             2.3441     1.4836    -0.2905 C.2     
   9 N9             2.4433     0.1480    -0.3779 N.2     
  10 N10            3.5743     1.9453    -0.1618 N.2     
  11 N11            4.3759     0.9363    -0.1656 N.pl3   
  12 N12            3.6958    -0.1488    -0.2958 N.2     
  13 O13            1.1578     3.4961    -0.3777 O.2     
  14 C14           -3.4372    -0.1552     0.8738 C.2     
  15 C15           -3.5081    -1.6326     0.8451 C.ar    
  16 O16           -4.4594     0.5018     0.9019 O.2     
  17 C17           -1.0062     3.9219    -0.0173 C.3     
  18 C18           -2.1510     2.2760    -1.5153 C.3     
  19 N19           -2.4295    -2.3483     1.1452 N.ar    
  20 C20           -2.4429    -3.6645     1.1328 C.ar    
  21 C21           -3.6009    -4.3599     0.8002 C.ar    
  22 C22           -4.7540    -3.6461     0.4816 C.ar    
  23 C23           -4.7070    -2.2589     0.5090 C.ar    
  24 Cl24          -0.9999    -4.5419     1.5351 Cl      
  25 O25           -3.5993    -5.7179     0.7847 O.3     
  26 C26           -4.8788    -6.3611     0.8112 C.3     
  27 C27           -5.7908    -5.6661    -0.2085 C.3     
  28 O28           -5.9058    -4.2859     0.1580 O.3     
  29 C29            5.7712     1.0092    -0.0502 C.ar    
  30 C30            6.5317    -0.1516    -0.0673 C.ar    
  31 C31            6.3951     2.2436     0.0757 C.ar    
  32 C32            7.7697     2.3138     0.1888 C.ar    
  33 C33            8.5263     1.1566     0.1769 C.ar    
  34 C34            7.9086    -0.0760     0.0463 C.ar    
  35 C35           10.0260     1.2371     0.3005 C.3     
  36 F36            8.6501    -1.2052     0.0354 F       
  37 H37           -0.6828    -0.0785    -1.3511 H       
  38 H38            0.8163    -0.2272    -0.3974 H       
  39 H39           -1.2357    -1.3697     0.6228 H       
  40 H40           -0.4173    -0.1967     1.6873 H       
  41 H41           -3.1539     2.3548     0.9353 H       
  42 H42           -1.6547     2.2061     1.8889 H       
  43 H43           -0.2465     4.0153     0.7588 H       
  44 H44           -0.6288     4.3456    -0.9480 H       
  45 H45           -1.9050     4.4579     0.2878 H       
  46 H46           -3.0792     2.8419    -1.4367 H       
  47 H47           -1.5708     2.6455    -2.3609 H       
  48 H48           -2.3802     1.2210    -1.6653 H       
  49 H49           -5.5823    -1.6748     0.2659 H       
  50 H50           -4.7667    -7.4126     0.5468 H       
  51 H51           -5.3115    -6.2768     1.8081 H       
  52 H52           -5.3564    -5.7467    -1.2049 H       
  53 H53           -6.7761    -6.1323    -0.1979 H       
  54 H54            6.0494    -1.1126    -0.1689 H       
  55 H55            5.8054     3.1484     0.0848 H       
  56 H56            8.2544     3.2740     0.2863 H       
  57 H57           10.3067     1.1931     1.3528 H       
  58 H58           10.4799     0.4012    -0.2318 H       
  59 H59           10.3763     2.1752    -0.1300 H       
@<TRIPOS>BOND
   1    1    2 1
   2    1    7 am
   3    1    6 1
   4    2    3 1
   5    2   37 1
   6    2   38 1
   7    3    4 1
   8    3   39 1
   9    3   40 1
  10    4    5 1
  11    4   14 am
  12    5    6 1
  13    5   41 1
  14    5   42 1
  15    6   17 1
  16    6   18 1
  17    7    8 1
  18    7   13 2
  19    8    9 1
  20    8   10 2
  21    9   12 2
  22   10   11 1
  23   11   12 1
  24   11   29 1
  25   14   15 1
  26   14   16 2
  27   15   19 ar
  28   15   23 ar
  29   17   43 1
  30   17   44 1
  31   17   45 1
  32   18   46 1
  33   18   47 1
  34   18   48 1
  35   19   20 ar
  36   20   21 ar
  37   20   24 1
  38   21   22 ar
  39   21   25 1
  40   22   23 ar
  41   22   28 1
  42   23   49 1
  43   25   26 1
  44   26   27 1
  45   26   50 1
  46   26   51 1
  47   27   28 1
  48   27   52 1
  49   27   53 1
  50   29   30 ar
  51   29   31 ar
  52   30   34 ar
  53   30   54 1
  54   31   32 ar
  55   31   55 1
  56   32   33 ar
  57   32   56 1
  58   33   34 ar
  59   33   35 1
  60   34   36 1
  61   35   57 1
  62   35   58 1
  63   35   59 1

#	End of record

