#	Name: ASD08150667
#	Creating user name:	WinNT
#	Creation time:	15. 06. 2019 21:16

#	Modifying user name:	WinNT
#	Modification time:	15. 06. 2019 21:16

#	Program:	/corina/corina34_cracker 3.40 0067  02.08.2006

@<TRIPOS>MOLECULE
ASD08150667
  65   71    0    0    0
SMALL
NO_CHARGES


@<TRIPOS>ATOM
   1 N1             0.0527     1.4291     0.2853 N.am    
   2 C2             0.1861     0.1091     0.5191 C.2     
   3 C3             1.4597    -0.4939     0.5586 C.2     
   4 C4             2.5756     0.2530     0.3600 C.2     
   5 C5             2.4391     1.6422     0.1137 C.ar    
   6 C6             3.5637     2.4621    -0.0991 C.ar    
   7 N7             3.4349     3.7433    -0.3261 N.ar    
   8 C8             2.2379     4.3474    -0.3700 C.ar    
   9 C9             1.0516     3.5998    -0.1674 C.ar    
  10 C10            1.1567     2.2112     0.0810 C.ar    
  11 C11           -0.1910     4.2391    -0.2142 C.ar    
  12 C12           -0.2485     5.6016    -0.4590 C.ar    
  13 C13            0.9297     6.3348    -0.6589 C.ar    
  14 C14            2.1456     5.7271    -0.6165 C.ar    
  15 O15           -0.8081    -0.5732     0.6995 O.2     
  16 C16           -1.5624     6.2876    -0.5103 C.ar    
  17 C17           -1.2224     2.0025     0.2453 C.ar    
  18 C18           -1.6918     2.7275     1.3346 C.ar    
  19 C19           -2.9481     3.2935     1.2974 C.ar    
  20 C20           -3.7482     3.1385     0.1661 C.ar    
  21 C21           -3.2755     2.4111    -0.9249 C.ar    
  22 C22           -2.0159     1.8515    -0.8855 C.ar    
  23 C23           -5.1007     3.7463     0.1239 C.ar    
  24 C24           -2.7514     5.5427    -0.4613 C.ar    
  25 C25           -6.0073     3.5074     1.1551 C.ar    
  26 C26           -7.2643     4.0754     1.1106 C.ar    
  27 C27           -7.6250     4.8805     0.0451 C.ar    
  28 C28           -6.7292     5.1210    -0.9811 C.ar    
  29 C29           -5.4675     4.5629    -0.9442 C.ar    
  30 N30           -3.9246     6.1213    -0.5043 N.ar    
  31 C31           -4.0496     7.4495    -0.5969 C.ar    
  32 C32           -2.8954     8.2709    -0.6512 C.ar    
  33 C33           -1.6255     7.6706    -0.6012 C.ar    
  34 C34           -5.3186     8.0527    -0.6424 C.ar    
  35 C35           -5.4210     9.4065    -0.7372 C.ar    
  36 C36           -4.2851    10.2121    -0.7903 C.ar    
  37 C37           -3.0391     9.6653    -0.7493 C.ar    
  38 C38           -8.9992     5.4975     0.0020 C.3     
  39 O39           -8.9695     6.7722     0.6472 O.3     
  40 C40           -4.1379     2.2418    -2.1491 C.3     
  41 F41           -3.5311     1.3356    -3.0253 F       
  42 F42           -5.3939     1.7552    -1.7710 F       
  43 F43           -4.2893     3.4775    -2.7874 F       
  44 H44            1.5479    -1.5535     0.7477 H       
  45 H45            3.5534    -0.2045     0.3897 H       
  46 H46            4.5509     2.0248    -0.0740 H       
  47 H47           -1.0992     3.6750    -0.0610 H       
  48 H48            0.8709     7.3962    -0.8492 H       
  49 H49            3.0431     6.3073    -0.7724 H       
  50 H50           -1.0718     2.8470     2.2108 H       
  51 H51           -3.3125     3.8563     2.1440 H       
  52 H52           -1.6475     1.2916    -1.7324 H       
  53 H53           -2.6967     4.4666    -0.3867 H       
  54 H54           -5.7269     2.8786     1.9872 H       
  55 H55           -7.9678     3.8907     1.9089 H       
  56 H56           -7.0162     5.7501    -1.8107 H       
  57 H57           -4.7689     4.7513    -1.7459 H       
  58 H58           -0.7261     8.2673    -0.6400 H       
  59 H59           -6.2096     7.4437    -0.6027 H       
  60 H60           -6.3986     9.8641    -0.7721 H       
  61 H61           -4.3947    11.2839    -0.8654 H       
  62 H62           -2.1660    10.2996    -0.7916 H       
  63 H63           -9.3090     5.6225    -1.0356 H       
  64 H64           -9.7061     4.8464     0.5163 H       
  65 H65           -9.8223     7.2281     0.6569 H       
@<TRIPOS>BOND
   1    1    2 am
   2    1   10 1
   3    1   17 1
   4    2    3 1
   5    2   15 2
   6    3    4 2
   7    3   44 1
   8    4    5 1
   9    4   45 1
  10    5    6 ar
  11    5   10 ar
  12    6    7 ar
  13    6   46 1
  14    7    8 ar
  15    8    9 ar
  16    8   14 ar
  17    9   10 ar
  18    9   11 ar
  19   11   12 ar
  20   11   47 1
  21   12   13 ar
  22   12   16 1
  23   13   14 ar
  24   13   48 1
  25   14   49 1
  26   16   24 ar
  27   16   33 ar
  28   17   18 ar
  29   17   22 ar
  30   18   19 ar
  31   18   50 1
  32   19   20 ar
  33   19   51 1
  34   20   21 ar
  35   20   23 1
  36   21   22 ar
  37   21   40 1
  38   22   52 1
  39   23   25 ar
  40   23   29 ar
  41   24   30 ar
  42   24   53 1
  43   25   26 ar
  44   25   54 1
  45   26   27 ar
  46   26   55 1
  47   27   28 ar
  48   27   38 1
  49   28   29 ar
  50   28   56 1
  51   29   57 1
  52   30   31 ar
  53   31   32 ar
  54   31   34 ar
  55   32   33 ar
  56   32   37 ar
  57   33   58 1
  58   34   35 ar
  59   34   59 1
  60   35   36 ar
  61   35   60 1
  62   36   37 ar
  63   36   61 1
  64   37   62 1
  65   38   39 1
  66   38   63 1
  67   38   64 1
  68   39   65 1
  69   40   41 1
  70   40   42 1
  71   40   43 1

#	End of record

