#	Name: ASD09610036
#	Creating user name:	WinNT
#	Creation time:	15. 06. 2019 21:22

#	Modifying user name:	WinNT
#	Modification time:	15. 06. 2019 21:22

#	Program:	/corina/corina34_cracker 3.40 0067  02.08.2006

@<TRIPOS>MOLECULE
ASD09610036
  17   17    0    0    0
SMALL
NO_CHARGES


@<TRIPOS>ATOM
   1 C1            -0.0167     1.3803     0.0096 C.ar    
   2 C2             0.0021    -0.0041     0.0020 C.ar    
   3 C3             1.2223    -0.6636    -0.0132 C.ar    
   4 C4             2.3833     0.0956    -0.0203 C.ar    
   5 C5             2.2865     1.4767    -0.0119 C.ar    
   6 N6             1.1081     2.0706     0.0026 N.ar    
   7 S7             1.2959    -2.4240    -0.0228 S.o2    
   8 O8             2.5523    -2.7255     0.5687 O.2     
   9 O9             0.0806    -2.8289     0.5923 O.2     
  10 C10            1.2976    -2.8674    -1.7818 C.3     
  11 Cl11           3.7319     2.4381    -0.0200 Cl      
  12 Cl12           3.9381    -0.6764    -0.0388 Cl      
  13 Cl13          -1.4829    -0.9032     0.0120 Cl      
  14 Cl14          -1.5373     2.2177     0.0214 Cl      
  15 H15            2.1651    -2.4212    -2.2681 H       
  16 H16            1.3420    -3.9518    -1.8831 H       
  17 H17            0.3868    -2.4956    -2.2511 H       
@<TRIPOS>BOND
   1    1    2 ar
   2    1    6 ar
   3    1   14 1
   4    2    3 ar
   5    2   13 1
   6    3    4 ar
   7    3    7 1
   8    4    5 ar
   9    4   12 1
  10    5    6 ar
  11    5   11 1
  12    7    8 2
  13    7    9 2
  14    7   10 1
  15   10   15 1
  16   10   16 1
  17   10   17 1

#	End of record

