#	Name: ASD05380085
#	Creating user name:	WinNT
#	Creation time:	15. 06. 2019 20:59

#	Modifying user name:	WinNT
#	Modification time:	15. 06. 2019 20:59

#	Program:	/corina/corina34_cracker 3.40 0067  02.08.2006

@<TRIPOS>MOLECULE
ASD05380085
  46   50    0    0    0
SMALL
NO_CHARGES


@<TRIPOS>ATOM
   1 C1            -0.2260     1.5759    -0.3893 C.ar    
   2 C2            -0.0884     0.1885    -0.6183 C.ar    
   3 C3             0.7591     2.4571    -0.8298 C.ar    
   4 C4             1.8649     1.9650    -1.4884 C.ar    
   5 C5             2.0032     0.6022    -1.7155 C.ar    
   6 C6             1.0414    -0.2856    -1.2875 C.ar    
   7 N7            -1.0602    -0.6505    -0.1804 N.2     
   8 C8            -2.1106    -0.2094     0.4423 C.2     
   9 N9            -2.3257     1.1081     0.7052 N.am    
  10 C10           -1.4239     2.0426     0.3238 C.2     
  11 C11           -3.4871     1.5001     1.3826 C.ar    
  12 C12           -4.6413     1.7958     0.6697 C.ar    
  13 C13           -3.4876     1.5881     2.7682 C.ar    
  14 C14           -4.6361     1.9750     3.4355 C.ar    
  15 C15           -5.7847     2.2741     2.7224 C.ar    
  16 C16           -5.7877     2.1824     1.3407 C.ar    
  17 C17           -3.1445    -1.2074     0.8965 C.3     
  18 N18           -3.2457    -2.2878    -0.0877 N.pl3   
  19 C19           -4.4157    -3.0191    -0.1946 C.ar    
  20 N20           -5.4570    -2.7543     0.5877 N.ar    
  21 O21           -1.6031     3.2247     0.5528 O.2     
  22 C22           -4.5325    -4.0550    -1.1367 C.ar    
  23 C23           -5.7453    -4.7622    -1.1983 C.ar    
  24 N24           -6.7300    -4.4289    -0.3705 N.ar    
  25 C25           -6.5773    -3.4468     0.4928 C.ar    
  26 N26           -3.7118    -4.5876    -2.0737 N.2     
  27 C27           -4.3285    -5.5529    -2.6914 C.2     
  28 N28           -5.5865    -5.6997    -2.1873 N.pl3   
  29 C29           -2.7326    -1.7880     2.2507 C.3     
  30 F30           -6.9097     2.4747     0.6472 F       
  31 F31           -4.6370     2.0607     4.7838 F       
  32 H32            0.6567     3.5182    -0.6566 H       
  33 H33            2.6305     2.6452    -1.8313 H       
  34 H34            2.8760     0.2338    -2.2340 H       
  35 H35            1.1599    -1.3434    -1.4699 H       
  36 H36           -4.6440     1.7243    -0.4079 H       
  37 H37           -2.5921     1.3542     3.3247 H       
  38 H38           -6.6806     2.5757     3.2448 H       
  39 H39           -4.1105    -0.7116     0.9924 H       
  40 H40           -2.4926    -2.4907    -0.6644 H       
  41 H41           -7.3990    -3.1985     1.1483 H       
  42 H42           -3.9059    -6.1497    -3.4861 H       
  43 H43           -6.2479    -6.3485    -2.4747 H       
  44 H44           -1.8140    -2.3632     2.1352 H       
  45 H45           -2.5661    -0.9760     2.9587 H       
  46 H46           -3.5241    -2.4383     2.6232 H       
@<TRIPOS>BOND
   1    1    2 ar
   2    1    3 ar
   3    1   10 1
   4    2    7 1
   5    2    6 ar
   6    3    4 ar
   7    3   32 1
   8    4    5 ar
   9    4   33 1
  10    5    6 ar
  11    5   34 1
  12    6   35 1
  13    7    8 2
  14    8    9 1
  15    8   17 1
  16    9   10 am
  17    9   11 1
  18   10   21 2
  19   11   12 ar
  20   11   13 ar
  21   12   16 ar
  22   12   36 1
  23   13   14 ar
  24   13   37 1
  25   14   15 ar
  26   14   31 1
  27   15   16 ar
  28   15   38 1
  29   16   30 1
  30   17   18 1
  31   17   29 1
  32   17   39 1
  33   18   19 1
  34   18   40 1
  35   19   20 ar
  36   19   22 ar
  37   20   25 ar
  38   22   23 ar
  39   22   26 1
  40   23   24 ar
  41   23   28 1
  42   24   25 ar
  43   25   41 1
  44   26   27 2
  45   27   28 1
  46   27   42 1
  47   28   43 1
  48   29   44 1
  49   29   45 1
  50   29   46 1

#	End of record

