#	Name: ASD03091015
#	Creating user name:	WinNT
#	Creation time:	15. 06. 2019 20:29

#	Modifying user name:	WinNT
#	Modification time:	15. 06. 2019 20:29

#	Program:	/corina/corina34_cracker 3.40 0067  02.08.2006

@<TRIPOS>MOLECULE
ASD03091015
  41   44    0    0    0
SMALL
NO_CHARGES


@<TRIPOS>ATOM
   1 N1            -0.0191     1.4677    -0.1024 N.am    
   2 C2             0.0005    -0.0018    -0.1406 C.3     
   3 C3             1.4801    -0.4400    -0.1577 C.3     
   4 C4             2.2133     0.7885     0.4427 C.3     
   5 C5             1.3705     1.9597    -0.1208 C.3     
   6 C6            -1.1245     2.2378    -0.0630 C.2     
   7 O7            -2.2274     1.7204    -0.0568 O.2     
   8 N8            -1.0105     3.5724    -0.0306 N.2     
   9 S9            -3.7601     3.7365     0.0230 S.3     
  10 C10           -2.0965     4.3289     0.0082 C.2     
  11 N11           -2.1119     5.6808     0.0433 N.pl3   
  12 C12           -3.4082     6.3201     0.0832 C.3     
  13 C13           -4.5397     5.3247     0.0780 C.2     
  14 C14           -5.8341     5.5819     0.1084 C.2     
  15 O15           -3.4962     7.1150     1.2674 O.3     
  16 O16            2.4144     8.8386     0.0179 O.3     
  17 C17            1.7666    10.0886     0.3195 C.3     
  18 O18            0.4156     9.8932    -0.1385 O.3     
  19 C19            0.1936     8.5487    -0.0566 C.ar    
  20 C20            1.4226     7.8995     0.0395 C.ar    
  21 C21           -0.9782     7.8114    -0.0555 C.ar    
  22 C22           -0.9269     6.4272     0.0415 C.ar    
  23 C23            0.2992     5.7833     0.1373 C.ar    
  24 C24            1.4695     6.5186     0.1356 C.ar    
  25 F25            1.7881    10.3336     1.6968 F       
  26 F26            2.3748    11.1382    -0.3773 F       
  27 H27           -0.4946    -0.4023     0.7440 H       
  28 H28           -0.5015    -0.3560    -1.0411 H       
  29 H29            1.6286    -1.3210     0.4667 H       
  30 H30            1.8148    -0.6283    -1.1779 H       
  31 H31            2.1781     0.7705     1.5320 H       
  32 H32            3.2424     0.8413     0.0874 H       
  33 H33            1.6773     2.1915    -1.1407 H       
  34 H34            1.4700     2.8392     0.5153 H       
  35 H35           -3.5073     6.9720    -0.7847 H       
  36 H36           -6.5463     4.7701     0.1012 H       
  37 H37           -6.1808     6.6043     0.1406 H       
  38 H38           -4.3389     7.5783     1.3684 H       
  39 H39           -1.9319     8.3127    -0.1296 H       
  40 H40            0.3386     4.7067     0.2131 H       
  41 H41            2.4223     6.0154     0.2098 H       
@<TRIPOS>BOND
   1    1    2 1
   2    1    5 1
   3    1    6 am
   4    2    3 1
   5    2   27 1
   6    2   28 1
   7    3    4 1
   8    3   29 1
   9    3   30 1
  10    4    5 1
  11    4   31 1
  12    4   32 1
  13    5   33 1
  14    5   34 1
  15    6    7 2
  16    6    8 1
  17    8   10 2
  18    9   10 1
  19    9   13 1
  20   10   11 1
  21   11   12 1
  22   11   22 1
  23   12   13 1
  24   12   15 1
  25   12   35 1
  26   13   14 2
  27   14   36 1
  28   14   37 1
  29   15   38 1
  30   16   17 1
  31   16   20 1
  32   17   18 1
  33   17   25 1
  34   17   26 1
  35   18   19 1
  36   19   20 ar
  37   19   21 ar
  38   20   24 ar
  39   21   22 ar
  40   21   39 1
  41   22   23 ar
  42   23   24 ar
  43   23   40 1
  44   24   41 1

#	End of record

