#	Name: ASD02770066
#	Creating user name:	WinNT
#	Creation time:	15. 06. 2019 20:26

#	Modifying user name:	WinNT
#	Modification time:	15. 06. 2019 20:26

#	Program:	/corina/corina34_cracker 3.40 0067  02.08.2006

@<TRIPOS>MOLECULE
ASD02770066
  29   29    0    0    0
SMALL
NO_CHARGES


@<TRIPOS>ATOM
   1 C1            -0.0184     1.5028     0.0103 C.2     
   2 C2             0.0021    -0.0041     0.0020 C.3     
   3 O3             1.0236     2.1234     0.0037 O.2     
   4 N4            -1.1946     2.1607     0.0195 N.am    
   5 O5             1.3556    -0.4620    -0.0134 O.3     
   6 C6             1.5517    -1.8055    -0.0225 C.ar    
   7 C7             1.6404    -2.4848    -1.2321 C.ar    
   8 C8             1.8389    -3.8481    -1.2473 C.ar    
   9 C9             1.9522    -4.5517    -0.0421 C.ar    
  10 C10            1.8632    -3.8659     1.1755 C.ar    
  11 C11            1.6694    -2.4990     1.1815 C.ar    
  12 C12            2.1633    -6.0050    -0.0549 C.2     
  13 O13            2.2398    -6.5975    -1.1106 O.2     
  14 O14            1.5876    -1.8294     2.3624 O.3     
  15 C15            1.7168    -2.6028     3.5571 C.3     
  16 C16            1.5991    -1.6839     4.7747 C.3     
  17 Cl17           1.5000    -1.6134    -2.7269 Cl      
  18 H18           -0.4983    -0.3791     0.8948 H       
  19 H19           -0.5153    -0.3696    -0.8850 H       
  20 H20           -2.0280     1.6644     0.0207 H       
  21 H21           -1.2077     3.1306     0.0248 H       
  22 H22            1.9067    -4.3737    -2.1883 H       
  23 H23            1.9500    -4.4044     2.1076 H       
  24 H24            2.2505    -6.5463     0.8756 H       
  25 H25            0.9274    -3.3537     3.5909 H       
  26 H26            2.6886    -3.0964     3.5670 H       
  27 H27            2.3885    -0.9330     4.7409 H       
  28 H28            0.6273    -1.1902     4.7648 H       
  29 H29            1.6976    -2.2738     5.6860 H       
@<TRIPOS>BOND
   1    1    2 1
   2    1    3 2
   3    1    4 am
   4    2    5 1
   5    2   18 1
   6    2   19 1
   7    4   20 1
   8    4   21 1
   9    5    6 1
  10    6    7 ar
  11    6   11 ar
  12    7    8 ar
  13    7   17 1
  14    8    9 ar
  15    8   22 1
  16    9   10 ar
  17    9   12 1
  18   10   11 ar
  19   10   23 1
  20   11   14 1
  21   12   13 2
  22   12   24 1
  23   14   15 1
  24   15   16 1
  25   15   25 1
  26   15   26 1
  27   16   27 1
  28   16   28 1
  29   16   29 1

#	End of record

