#	Name: ASD01411598
#	Creating user name:	WinNT
#	Creation time:	15. 06. 2019 19:19

#	Modifying user name:	WinNT
#	Modification time:	15. 06. 2019 19:19

#	Program:	/corina/corina34_cracker 3.40 0067  02.08.2006

@<TRIPOS>MOLECULE
ASD01411598
  35   38    0    0    0
SMALL
NO_CHARGES


@<TRIPOS>ATOM
   1 C1            -0.0163     1.3515     0.0095 C.2     
   2 N2             0.0021    -0.0041     0.0020 N.pl3   
   3 C3             1.1418    -0.7114    -0.0126 C.2     
   4 C4             2.3580    -0.0559    -0.0207 C.2     
   5 C5             2.3611     1.4161    -0.0128 C.2     
   6 C6             1.1195     2.0836     0.0026 C.2     
   7 N7             3.6512    -0.4187    -0.0346 N.2     
   8 C8             4.3944     0.6761    -0.0355 C.2     
   9 N9             3.6390     1.7746    -0.0227 N.2     
  10 C10            5.8769     0.6806    -0.0492 C.ar    
  11 C11            6.5813    -0.5245    -0.0621 C.ar    
  12 C12            7.9641    -0.5125    -0.0747 C.ar    
  13 C13            8.6470     0.6895    -0.0741 C.ar    
  14 C14            7.9528     1.8865    -0.0612 C.ar    
  15 C15            6.5731     1.8882    -0.0548 C.ar    
  16 F16            5.9141    -1.6992    -0.0619 F       
  17 C17           -1.2732    -0.7250     0.0108 C.3     
  18 C18           -1.7246    -0.9646    -1.4069 C.ar    
  19 N19           -2.4009    -0.0331    -2.0515 N.ar    
  20 C20           -1.4251    -2.1617    -2.0380 C.ar    
  21 C21           -1.8621    -2.3368    -3.3444 C.ar    
  22 C22           -2.5715    -1.3024    -3.9371 C.ar    
  23 N23           -2.8052    -0.1935    -3.2590 N.ar    
  24 Cl24          -3.1435    -1.4620    -5.5683 Cl      
  25 H25           -0.9680     1.8620     0.0167 H       
  26 H26            1.1088    -1.7909    -0.0178 H       
  27 H27            1.0768     3.1627     0.0088 H       
  28 H28            8.5113    -1.4435    -0.0848 H       
  29 H29            9.7270     0.6943    -0.0832 H       
  30 H30            8.4925     2.8220    -0.0608 H       
  31 H31            6.0335     2.8236    -0.0448 H       
  32 H32           -1.1465    -1.6813     0.5183 H       
  33 H33           -2.0223    -0.1318     0.5353 H       
  34 H34           -0.8685    -2.9348    -1.5292 H       
  35 H35           -1.6557    -3.2501    -3.8826 H       
@<TRIPOS>BOND
   1    1    2 1
   2    1    6 2
   3    1   25 1
   4    2    3 1
   5    2   17 1
   6    3    4 2
   7    3   26 1
   8    4    5 1
   9    4    7 1
  10    5    6 1
  11    5    9 2
  12    6   27 1
  13    7    8 2
  14    8    9 1
  15    8   10 1
  16   10   11 ar
  17   10   15 ar
  18   11   12 ar
  19   11   16 1
  20   12   13 ar
  21   12   28 1
  22   13   14 ar
  23   13   29 1
  24   14   15 ar
  25   14   30 1
  26   15   31 1
  27   17   18 1
  28   17   32 1
  29   17   33 1
  30   18   19 ar
  31   18   20 ar
  32   19   23 ar
  33   20   21 ar
  34   20   34 1
  35   21   22 ar
  36   21   35 1
  37   22   23 ar
  38   22   24 1

#	End of record

