#	Name: ASD03330938
#	Creating user name:	WinNT
#	Creation time:	15. 06. 2019 20:38

#	Modifying user name:	WinNT
#	Modification time:	15. 06. 2019 20:38

#	Program:	/corina/corina34_cracker 3.40 0067  02.08.2006

@<TRIPOS>MOLECULE
ASD03330938
  67   70    0    0    0
SMALL
NO_CHARGES


@<TRIPOS>ATOM
   1 N1            -0.0896     1.2502     0.4454 N.pl3   
   2 C2            -0.0101    -0.1019     0.3229 C.2     
   3 C3             1.2626    -0.9076     0.2993 C.3     
   4 N4             2.1322    -0.4677     1.4015 N.3     
   5 C5             2.9976     0.6376     0.9854 C.3     
   6 C6             2.2892     1.5350    -0.0252 C.3     
   7 C7             1.0472     2.1592     0.6168 C.3     
   8 C8            -1.4105     1.5884     0.3908 C.2     
   9 N9            -2.1187     0.4912     0.2585 N.2     
  10 C10           -1.2838    -0.5706     0.2162 C.2     
  11 C11           -1.6810    -1.9829     0.0785 C.2     
  12 O12           -0.8321    -2.8535     0.0519 O.2     
  13 N13           -2.9849    -2.3099    -0.0181 N.am    
  14 C14           -1.9534     2.9616     0.4682 C.ar    
  15 C15           -2.9233     3.3847    -0.4448 C.ar    
  16 C16           -3.4275     4.6689    -0.3675 C.ar    
  17 C17           -2.9731     5.5361     0.6120 C.ar    
  18 C18           -2.0097     5.1210     1.5208 C.ar    
  19 C19           -1.5035     3.8377     1.4565 C.ar    
  20 F20           -1.5701     5.9723     2.4733 F       
  21 F21           -3.4690     6.7907     0.6829 F       
  22 F22           -3.3668     2.5399    -1.4013 F       
  23 C23            2.9246    -1.5879     1.9262 C.3     
  24 C24           -4.7214    -3.7943    -0.8367 C.2     
  25 C25           -3.3798    -3.7140    -0.1551 C.3     
  26 C26           -3.4727    -4.3552     1.2310 C.3     
  27 C27           -4.0173    -5.7789     1.0988 C.3     
  28 O28           -5.5669    -2.9542    -0.6122 O.2     
  29 C29           -2.0820    -4.3981     1.8673 C.3     
  30 C30           -4.4118    -3.5297     2.1128 C.3     
  31 N31           -4.9818    -4.7997    -1.6957 N.am    
  32 C32           -6.2769    -5.0624    -2.3401 C.3     
  33 C33           -6.1068    -6.3234    -3.2132 C.3     
  34 C34           -4.8827    -7.0282    -2.5711 C.3     
  35 C35           -4.0134    -5.8144    -2.1496 C.3     
  36 F36           -7.2428    -7.1362    -3.1356 F       
  37 F37           -5.8365    -5.9737    -4.5406 F       
  38 H38            1.0268    -1.9648     0.4210 H       
  39 H39            1.7734    -0.7542    -0.6513 H       
  40 H40            3.2695     1.2284     1.8602 H       
  41 H41            3.9026     0.2328     0.5323 H       
  42 H42            2.9675     2.3257    -0.3458 H       
  43 H43            1.9909     0.9421    -0.8898 H       
  44 H44            0.8278     3.1121     0.1351 H       
  45 H45            1.2282     2.3200     1.6796 H       
  46 H46           -3.6619    -1.6155     0.0031 H       
  47 H47           -4.1771     4.9970    -1.0725 H       
  48 H48           -0.7571     3.5144     2.1670 H       
  49 H49            3.4951    -2.0406     1.1152 H       
  50 H50            3.6088    -1.2219     2.6916 H       
  51 H51            2.2577    -2.3324     2.3610 H       
  52 H52           -2.6370    -4.2438    -0.7514 H       
  53 H53           -3.3075    -6.3890     0.5402 H       
  54 H54           -4.1616    -6.2062     2.0911 H       
  55 H55           -4.9707    -5.7557     0.5711 H       
  56 H56           -1.6940    -3.3838     1.9615 H       
  57 H57           -2.1482    -4.8549     2.8548 H       
  58 H58           -1.4130    -4.9861     1.2391 H       
  59 H59           -5.4026    -3.4992     1.6595 H       
  60 H60           -4.4780    -3.9865     3.1003 H       
  61 H61           -4.0239    -2.5155     2.2070 H       
  62 H62           -7.0398    -5.2369    -1.5815 H       
  63 H63           -6.5590    -4.2146    -2.9644 H       
  64 H64           -5.1817    -7.6184    -1.7049 H       
  65 H65           -4.3601    -7.6460    -3.3013 H       
  66 H66           -3.4396    -5.4453    -2.9997 H       
  67 H67           -3.3472    -6.0905    -1.3323 H       
@<TRIPOS>BOND
   1    1    2 1
   2    1    7 1
   3    1    8 1
   4    2    3 1
   5    2   10 2
   6    3    4 1
   7    3   38 1
   8    3   39 1
   9    4    5 1
  10    4   23 1
  11    5    6 1
  12    5   40 1
  13    5   41 1
  14    6    7 1
  15    6   42 1
  16    6   43 1
  17    7   44 1
  18    7   45 1
  19    8    9 2
  20    8   14 1
  21    9   10 1
  22   10   11 1
  23   11   12 2
  24   11   13 am
  25   13   25 1
  26   13   46 1
  27   14   15 ar
  28   14   19 ar
  29   15   16 ar
  30   15   22 1
  31   16   17 ar
  32   16   47 1
  33   17   18 ar
  34   17   21 1
  35   18   19 ar
  36   18   20 1
  37   19   48 1
  38   23   49 1
  39   23   50 1
  40   23   51 1
  41   24   28 2
  42   24   31 am
  43   24   25 1
  44   25   26 1
  45   25   52 1
  46   26   27 1
  47   26   29 1
  48   26   30 1
  49   27   53 1
  50   27   54 1
  51   27   55 1
  52   29   56 1
  53   29   57 1
  54   29   58 1
  55   30   59 1
  56   30   60 1
  57   30   61 1
  58   31   32 1
  59   31   35 1
  60   32   33 1
  61   32   62 1
  62   32   63 1
  63   33   34 1
  64   33   36 1
  65   33   37 1
  66   34   35 1
  67   34   64 1
  68   34   65 1
  69   35   66 1
  70   35   67 1

#	End of record

