#	Name: ASD01915429
#	Creating user name:	WinNT
#	Creation time:	15. 06. 2019 20:05

#	Modifying user name:	WinNT
#	Modification time:	15. 06. 2019 20:05

#	Program:	/corina/corina34_cracker 3.40 0067  02.08.2006

@<TRIPOS>MOLECULE
ASD01915429
  46   50    0    0    0
SMALL
NO_CHARGES


@<TRIPOS>ATOM
   1 N1            -0.0164     1.3617     0.0095 N.pl3   
   2 C2             0.0021    -0.0041     0.0020 C.2     
   3 C3             1.2848    -0.4444    -0.0126 C.2     
   4 C4             2.1377     0.7517    -0.0143 C.ar    
   5 C5             1.2658     1.8567    -0.0001 C.ar    
   6 N6             1.7514     3.0919     0.0019 N.ar    
   7 C7             3.5257     0.9592    -0.0271 C.ar    
   8 C8             3.9917     2.2885    -0.0251 C.ar    
   9 C9             3.0504     3.3371    -0.0091 C.ar    
  10 C10            5.3959     2.5691    -0.0380 C.1     
  11 C11            1.7375    -1.8561    -0.0241 C.ar    
  12 C12            1.2217    -2.7639     0.8998 C.ar    
  13 C13            1.6469    -4.0766     0.8843 C.ar    
  14 C14            2.5833    -4.4923    -0.0451 C.ar    
  15 C15            3.0990    -3.5960    -0.9640 C.ar    
  16 C16            2.6764    -2.2823    -0.9624 C.ar    
  17 C17            4.4687    -0.1811    -0.0418 C.ar    
  18 C18            5.2974    -0.3909    -1.1448 C.ar    
  19 C19            6.1747    -1.4556    -1.1520 C.ar    
  20 C20            6.2337    -2.3146    -0.0690 C.ar    
  21 C21            5.4145    -2.1123     1.0274 C.ar    
  22 C22            4.5372    -1.0477     1.0497 C.ar    
  23 C23            3.5253     4.7400    -0.0061 C.ar    
  24 C24            2.8073     5.7237    -0.6859 C.ar    
  25 C25            3.2545     7.0291    -0.6791 C.ar    
  26 C26            4.4125     7.3629     0.0003 C.ar    
  27 C27            5.1293     6.3916     0.6760 C.ar    
  28 C28            4.6892     5.0838     0.6813 C.ar    
  29 N29            6.5098     2.7916    -0.0483 N.1     
  30 H30           -0.8200     1.9049     0.0164 H       
  31 H31           -0.8726    -0.6376     0.0070 H       
  32 H32            0.4911    -2.4403     1.6263 H       
  33 H33            1.2480    -4.7808     1.5995 H       
  34 H34            2.9134    -5.5206    -0.0532 H       
  35 H35            3.8301    -3.9261    -1.6871 H       
  36 H36            3.0758    -1.5845    -1.6835 H       
  37 H37            5.2517     0.2785    -1.9910 H       
  38 H38            6.8166    -1.6191    -2.0051 H       
  39 H39            6.9220    -3.1468    -0.0797 H       
  40 H40            5.4648    -2.7868     1.8694 H       
  41 H41            3.9017    -0.8881     1.9082 H       
  42 H42            1.9034     5.4642    -1.2169 H       
  43 H43            2.6996     7.7916    -1.2054 H       
  44 H44            4.7586     8.3860     0.0028 H       
  45 H45            6.0328     6.6582     1.2042 H       
  46 H46            5.2471     4.3272     1.2129 H       
@<TRIPOS>BOND
   1    1    2 1
   2    1    5 1
   3    1   30 1
   4    2    3 2
   5    2   31 1
   6    3    4 1
   7    3   11 1
   8    4    7 ar
   9    4    5 ar
  10    5    6 ar
  11    6    9 ar
  12    7    8 ar
  13    7   17 1
  14    8    9 ar
  15    8   10 1
  16    9   23 1
  17   10   29 3
  18   11   12 ar
  19   11   16 ar
  20   12   13 ar
  21   12   32 1
  22   13   14 ar
  23   13   33 1
  24   14   15 ar
  25   14   34 1
  26   15   16 ar
  27   15   35 1
  28   16   36 1
  29   17   18 ar
  30   17   22 ar
  31   18   19 ar
  32   18   37 1
  33   19   20 ar
  34   19   38 1
  35   20   21 ar
  36   20   39 1
  37   21   22 ar
  38   21   40 1
  39   22   41 1
  40   23   24 ar
  41   23   28 ar
  42   24   25 ar
  43   24   42 1
  44   25   26 ar
  45   25   43 1
  46   26   27 ar
  47   26   44 1
  48   27   28 ar
  49   27   45 1
  50   28   46 1

#	End of record

