#	Name: ASD01912931
#	Creating user name:	WinNT
#	Creation time:	15. 06. 2019 20:00

#	Modifying user name:	WinNT
#	Modification time:	15. 06. 2019 20:00

#	Program:	/corina/corina34_cracker 3.40 0067  02.08.2006

@<TRIPOS>MOLECULE
ASD01912931
  48   51    0    0    0
SMALL
NO_CHARGES


@<TRIPOS>ATOM
   1 C1            -0.0165     1.3669     0.0096 C.2     
   2 N2             0.0021    -0.0041     0.0020 N.pl3   
   3 C3            -1.2023    -0.6921     0.0098 C.2     
   4 C4            -2.3629    -0.0500     0.0239 C.2     
   5 N5            -2.4359     1.3309     0.0316 N.am    
   6 C6            -1.3019     2.0668     0.0309 C.2     
   7 C7             1.3014     1.7836    -0.0008 C.2     
   8 C8             2.0550     0.6110    -0.0143 C.2     
   9 N9             1.2244    -0.4045    -0.0118 N.2     
  10 O10           -1.3488     3.2837     0.0380 O.2     
  11 C11           -3.6787     1.9639     0.0455 C.ar    
  12 C12            3.5595     0.5249    -0.0295 C.3     
  13 O13            4.1120     1.8427    -0.0282 O.3     
  14 C14            5.4672     1.9435    -0.0410 C.ar    
  15 C15            6.0711     3.1925    -0.0405 C.ar    
  16 C16            7.4489     3.2923    -0.0536 C.ar    
  17 C17            8.2259     2.1487    -0.0672 C.ar    
  18 C18            7.6265     0.9027    -0.0682 C.ar    
  19 C19            6.2492     0.7976    -0.0489 C.ar    
  20 C20           -4.8373     1.2041     0.1568 C.ar    
  21 C21           -6.0640     1.8450     0.1699 C.ar    
  22 C22           -4.8979     3.9213    -0.0321 C.ar    
  23 N23           -3.7437     3.2834    -0.0420 N.ar    
  24 C24           -6.0890     3.2291     0.0707 C.ar    
  25 C25           -4.9176     5.4247    -0.1343 C.3     
  26 C26           -4.0431     6.0225     0.9697 C.3     
  27 O27           -4.0619     7.4481     0.8728 O.3     
  28 C28           -3.2721     8.1085     1.8638 C.3     
  29 H29           -1.1950    -1.7721     0.0039 H       
  30 H30           -3.2784    -0.6229     0.0292 H       
  31 H31            1.6684     2.7994     0.0008 H       
  32 H32            3.9016    -0.0134     0.8543 H       
  33 H33            3.8840    -0.0042    -0.9255 H       
  34 H34            5.4646     4.0861    -0.0302 H       
  35 H35            7.9195     4.2644    -0.0536 H       
  36 H36            9.3029     2.2288    -0.0775 H       
  37 H37            8.2356     0.0110    -0.0796 H       
  38 H38            5.7814    -0.1759    -0.0497 H       
  39 H39           -4.7811     0.1282     0.2318 H       
  40 H40           -6.9810     1.2808     0.2549 H       
  41 H41           -7.0296     3.7598     0.0778 H       
  42 H42           -4.5318     5.7279    -1.1076 H       
  43 H43           -5.9408     5.7831    -0.0214 H       
  44 H44           -4.4290     5.7194     1.9430 H       
  45 H45           -3.0200     5.6641     0.8569 H       
  46 H46           -3.6419     7.8486     2.8557 H       
  47 H47           -2.2329     7.7933     1.7695 H       
  48 H48           -3.3389     9.1872     1.7222 H       
@<TRIPOS>BOND
   1    1    2 1
   2    1    7 2
   3    1    6 1
   4    2    3 1
   5    2    9 1
   6    3    4 2
   7    3   29 1
   8    4    5 1
   9    4   30 1
  10    5    6 am
  11    5   11 1
  12    6   10 2
  13    7    8 1
  14    7   31 1
  15    8    9 2
  16    8   12 1
  17   11   20 ar
  18   11   23 ar
  19   12   13 1
  20   12   32 1
  21   12   33 1
  22   13   14 1
  23   14   15 ar
  24   14   19 ar
  25   15   16 ar
  26   15   34 1
  27   16   17 ar
  28   16   35 1
  29   17   18 ar
  30   17   36 1
  31   18   19 ar
  32   18   37 1
  33   19   38 1
  34   20   21 ar
  35   20   39 1
  36   21   24 ar
  37   21   40 1
  38   22   23 ar
  39   22   25 1
  40   22   24 ar
  41   24   41 1
  42   25   26 1
  43   25   42 1
  44   25   43 1
  45   26   27 1
  46   26   44 1
  47   26   45 1
  48   27   28 1
  49   28   46 1
  50   28   47 1
  51   28   48 1

#	End of record

