#	Name: ASD04881156
#	Creating user name:	WinNT
#	Creation time:	15. 06. 2019 20:53

#	Modifying user name:	WinNT
#	Modification time:	15. 06. 2019 20:53

#	Program:	/corina/corina34_cracker 3.40 0067  02.08.2006

@<TRIPOS>MOLECULE
ASD04881156
  79   84    0    0    0
SMALL
NO_CHARGES


@<TRIPOS>ATOM
   1 C1             0.4231     0.6819     0.9931 C.ar    
   2 C2            -0.6654     1.5269     1.1182 C.ar    
   3 C3            -0.4937     2.8984     1.0642 C.ar    
   4 C4             0.7661     3.4325     0.8850 C.ar    
   5 C5             1.8678     2.5860     0.7587 C.ar    
   6 C6             1.6878     1.2032     0.8140 C.ar    
   7 C7             3.2199     3.1513     0.5660 C.2     
   8 C8             3.5815     3.7128    -0.7808 C.3     
   9 C9             4.8266     4.5944    -0.6550 C.3     
  10 N10            5.8533     3.8499     0.0925 N.3     
  11 C11            5.4502     3.6977     1.4962 C.3     
  12 C12            4.0555     3.1473     1.5811 C.2     
  13 C13            7.0936     4.4753    -0.0054 C.ar    
  14 C14            7.6841     5.0271     1.1258 C.ar    
  15 C15            8.9104     5.6469     1.0334 C.ar    
  16 C16            9.5654     5.7226    -0.1990 C.ar    
  17 C17            8.9742     5.1682    -1.3378 C.ar    
  18 C18            7.7458     4.5424    -1.2397 C.ar    
  19 N19            7.1523     3.9805    -2.3778 N.am    
  20 C20            7.3251     4.5585    -3.5830 C.2     
  21 C21            6.8079     3.9010    -4.7967 C.2     
  22 O22            7.9079     5.6226    -3.6692 O.2     
  23 C23            6.9085     4.3642    -6.0725 C.2     
  24 O24            6.3070     3.4624    -6.8648 O.3     
  25 C25            5.8471     2.4673    -6.0935 C.2     
  26 N26            6.1452     2.7140    -4.8530 N.2     
  27 C27           10.8789     6.3871    -0.2979 C.2     
  28 O28           11.4480     6.4524    -1.3704 O.2     
  29 C29            5.1064     1.2514    -6.5875 C.3     
  30 C30            3.7881     1.4804    -7.3296 C.3     
  31 C31            5.0326     1.0355    -8.1004 C.3     
  32 N32           11.4480     6.9217     0.8007 N.am    
  33 C33           12.7523     7.5815     0.7025 C.3     
  34 C34           13.1682     8.0968     2.0818 C.3     
  35 C35           14.5304     8.7859     1.9793 C.3     
  36 N36           14.9287     9.2794     3.3000 N.am    
  37 C37           15.7046     8.5034     4.2745 C.3     
  38 C38           15.5073     9.2244     5.6264 C.3     
  39 C39           15.1895    10.6674     5.1707 C.3     
  40 C40           14.6352    10.5030     3.7726 C.2     
  41 O41           14.0144    11.3510     3.1673 O.2     
  42 C42            2.8722     0.2814     0.6784 C.3     
  43 H43            0.2830    -0.3879     1.0402 H       
  44 H44           -1.6534     1.1139     1.2582 H       
  45 H45           -1.3474     3.5526     1.1622 H       
  46 H46            0.8988     4.5035     0.8424 H       
  47 H47            3.7846     2.8949    -1.4721 H       
  48 H48            2.7516     4.3093    -1.1597 H       
  49 H49            5.2029     4.8403    -1.6480 H       
  50 H50            4.5747     5.5094    -0.1189 H       
  51 H51            6.1397     3.0191     1.9983 H       
  52 H52            5.4816     4.6698     1.9883 H       
  53 H53            3.7249     2.7251     2.5185 H       
  54 H54            7.1798     4.9698     2.0791 H       
  55 H55            9.3662     6.0752     1.9138 H       
  56 H56            9.4778     5.2255    -2.2914 H       
  57 H57            6.6171     3.1754    -2.2983 H       
  58 H58            7.3816     5.2825    -6.3876 H       
  59 H59            5.1810     0.3664    -5.9556 H       
  60 H60            2.9957     0.7459    -7.1862 H       
  61 H61            3.4566     2.5105    -7.4605 H       
  62 H62            5.5199     1.7729    -8.7384 H       
  63 H63            5.0589     0.0083    -8.4641 H       
  64 H64           10.9940     6.8695     1.6563 H       
  65 H65           13.4939     6.8686     0.3422 H       
  66 H66           12.6848     8.4183     0.0073 H       
  67 H67           12.4266     8.8097     2.4422 H       
  68 H68           13.2358     7.2601     2.7771 H       
  69 H69           15.2720     8.0731     1.6190 H       
  70 H70           14.4629     9.6227     1.2840 H       
  71 H71           15.3252     7.4831     4.3322 H       
  72 H72           16.7593     8.4994     3.9995 H       
  73 H73           14.6705     8.7963     6.1783 H       
  74 H74           16.4204     9.1952     6.2209 H       
  75 H75           14.4468    11.1201     5.8277 H       
  76 H76           16.0979    11.2692     5.1485 H       
  77 H77            3.0232     0.0360    -0.3728 H       
  78 H78            3.7629     0.7746     1.0679 H       
  79 H79            2.6874    -0.6330     1.2421 H       
@<TRIPOS>BOND
   1    1    2 ar
   2    1    6 ar
   3    1   43 1
   4    2    3 ar
   5    2   44 1
   6    3    4 ar
   7    3   45 1
   8    4    5 ar
   9    4   46 1
  10    5    6 ar
  11    5    7 1
  12    6   42 1
  13    7    8 1
  14    7   12 2
  15    8    9 1
  16    8   47 1
  17    8   48 1
  18    9   10 1
  19    9   49 1
  20    9   50 1
  21   10   11 1
  22   10   13 1
  23   11   12 1
  24   11   51 1
  25   11   52 1
  26   12   53 1
  27   13   14 ar
  28   13   18 ar
  29   14   15 ar
  30   14   54 1
  31   15   16 ar
  32   15   55 1
  33   16   17 ar
  34   16   27 1
  35   17   18 ar
  36   17   56 1
  37   18   19 1
  38   19   20 am
  39   19   57 1
  40   20   21 1
  41   20   22 2
  42   21   23 2
  43   21   26 1
  44   23   24 1
  45   23   58 1
  46   24   25 1
  47   25   26 2
  48   25   29 1
  49   27   28 2
  50   27   32 am
  51   29   30 1
  52   29   31 1
  53   29   59 1
  54   30   31 1
  55   30   60 1
  56   30   61 1
  57   31   62 1
  58   31   63 1
  59   32   33 1
  60   32   64 1
  61   33   34 1
  62   33   65 1
  63   33   66 1
  64   34   35 1
  65   34   67 1
  66   34   68 1
  67   35   36 1
  68   35   69 1
  69   35   70 1
  70   36   37 1
  71   36   40 am
  72   37   38 1
  73   37   71 1
  74   37   72 1
  75   38   39 1
  76   38   73 1
  77   38   74 1
  78   39   40 1
  79   39   75 1
  80   39   76 1
  81   40   41 2
  82   42   77 1
  83   42   78 1
  84   42   79 1

#	End of record

