#	Name: ASD01813232
#	Creating user name:	WinNT
#	Creation time:	15. 06. 2019 19:30

#	Modifying user name:	WinNT
#	Modification time:	15. 06. 2019 19:30

#	Program:	/corina/corina34_cracker 3.40 0067  02.08.2006

@<TRIPOS>MOLECULE
ASD01813232
  58   62    0    0    0
SMALL
NO_CHARGES


@<TRIPOS>ATOM
   1 C1            -0.0169     1.3972     0.0097 C.2     
   2 C2             0.0021    -0.0041     0.0020 C.2     
   3 C3             1.1986    -0.6593    -0.0129 C.2     
   4 C4             2.3918     0.0821    -0.0204 C.2     
   5 N5             2.3437     1.4497    -0.0122 N.am    
   6 C6             1.1421     2.0937     0.0024 C.2     
   7 C7             3.6227    -0.5889    -0.0356 C.2     
   8 C8             4.7877     0.1218    -0.0425 C.2     
   9 C9             4.7345     1.5280    -0.0346 C.2     
  10 C10            3.4812     2.1736    -0.0189 C.2     
  11 O11            3.4258     3.3917    -0.0123 O.2     
  12 C12            5.9703     2.3140    -0.0413 C.2     
  13 O13            5.9124     3.6618    -0.0337 O.3     
  14 O14            7.0487     1.7516    -0.0537 O.2     
  15 C15            3.6593    -2.0954    -0.0439 C.3     
  16 N16            3.7787    -2.5747    -1.4274 N.3     
  17 C17            4.0548    -4.0166    -1.4628 C.3     
  18 C18            4.0166    -4.5080    -2.9126 C.3     
  19 C19            5.0463    -3.7372    -3.7346 C.3     
  20 C20            4.7889    -2.2360    -3.6330 C.3     
  21 C21            4.8021    -1.8180    -2.1600 C.3     
  22 C22            6.4651    -4.0673    -3.2549 C.3     
  23 N23            7.1308    -4.6626    -4.4181 N.am    
  24 C24            6.2515    -4.7073    -5.5019 C.ar    
  25 C25            5.0099    -4.1818    -5.1755 C.ar    
  26 C26            6.4645    -5.1900    -6.7948 C.ar    
  27 C27            5.4532    -5.1435    -7.7301 C.ar    
  28 C28            4.2187    -4.6179    -7.3948 C.ar    
  29 C29            4.0000    -4.1369    -6.1176 C.ar    
  30 S30            8.6962    -5.2023    -4.4429 S.o2    
  31 O31            9.0811    -5.0984    -5.8069 O.2     
  32 O32            9.3467    -4.4369    -3.4378 O.2     
  33 C33            8.5829    -6.9427    -3.9442 C.3     
  34 H34           -0.9605     1.9226     0.0170 H       
  35 H35           -0.9233    -0.5609     0.0082 H       
  36 H36            1.2282    -1.7389    -0.0187 H       
  37 H37            1.1156     3.1733     0.0087 H       
  38 H38            5.7393    -0.3889    -0.0536 H       
  39 H39            6.7544     4.1373    -0.0385 H       
  40 H40            4.5153    -2.4412     0.5356 H       
  41 H41            2.7412    -2.4836     0.3971 H       
  42 H42            5.0410    -4.2082    -1.0401 H       
  43 H43            3.3006    -4.5454    -0.8800 H       
  44 H44            4.2503    -5.5722    -2.9422 H       
  45 H45            3.0222    -4.3418    -3.3269 H       
  46 H46            5.5679    -1.6961    -4.1713 H       
  47 H47            3.8171    -2.0033    -4.0685 H       
  48 H48            4.5902    -0.7516    -2.0830 H       
  49 H49            5.7830    -2.0254    -1.7323 H       
  50 H50            6.9818    -3.1584    -2.9469 H       
  51 H51            6.4301    -4.7814    -2.4321 H       
  52 H52            7.4263    -5.6014    -7.0632 H       
  53 H53            5.6255    -5.5185    -8.7281 H       
  54 H54            3.4279    -4.5824    -8.1294 H       
  55 H55            3.0363    -3.7265    -5.8546 H       
  56 H56            7.9549    -7.4834    -4.6522 H       
  57 H57            9.5800    -7.3831    -3.9330 H       
  58 H58            8.1459    -7.0074    -2.9477 H       
@<TRIPOS>BOND
   1    1    2 1
   2    1    6 2
   3    1   34 1
   4    2    3 2
   5    2   35 1
   6    3    4 1
   7    3   36 1
   8    4    5 1
   9    4    7 2
  10    5    6 1
  11    5   10 am
  12    6   37 1
  13    7    8 1
  14    7   15 1
  15    8    9 2
  16    8   38 1
  17    9   10 1
  18    9   12 1
  19   10   11 2
  20   12   13 1
  21   12   14 2
  22   13   39 1
  23   15   16 1
  24   15   40 1
  25   15   41 1
  26   16   17 1
  27   16   21 1
  28   17   18 1
  29   17   42 1
  30   17   43 1
  31   18   19 1
  32   18   44 1
  33   18   45 1
  34   19   20 1
  35   19   22 1
  36   19   25 1
  37   20   21 1
  38   20   46 1
  39   20   47 1
  40   21   48 1
  41   21   49 1
  42   22   23 1
  43   22   50 1
  44   22   51 1
  45   23   24 1
  46   23   30 am
  47   24   25 ar
  48   24   26 ar
  49   25   29 ar
  50   26   27 ar
  51   26   52 1
  52   27   28 ar
  53   27   53 1
  54   28   29 ar
  55   28   54 1
  56   29   55 1
  57   30   31 2
  58   30   32 2
  59   30   33 1
  60   33   56 1
  61   33   57 1
  62   33   58 1

#	End of record

