#	Name: ASD03730263
#	Creating user name:	WinNT
#	Creation time:	15. 06. 2019 20:44

#	Modifying user name:	WinNT
#	Modification time:	15. 06. 2019 20:44

#	Program:	/corina/corina34_cracker 3.40 0067  02.08.2006

@<TRIPOS>MOLECULE
ASD03730263
  66   71    0    0    0
SMALL
NO_CHARGES


@<TRIPOS>ATOM
   1 N1            -0.4719     1.2335     1.2696 N.3     
   2 C2            -0.4124    -0.2457     1.3341 C.3     
   3 O3             0.6812    -0.5742     0.4585 O.3     
   4 C4             1.5218     0.5013     0.4629 C.ar    
   5 C5             0.8435     1.6194     0.9463 C.ar    
   6 C6             2.8490     0.6149     0.0849 C.ar    
   7 C7             3.5084     1.8367     0.1760 C.ar    
   8 C8             2.8138     2.9484     0.6430 C.ar    
   9 C9             1.4943     2.8393     1.0302 C.ar    
  10 O10            4.8025     2.1521    -0.1197 O.3     
  11 C11            3.7718     4.1079     0.5889 C.3     
  12 C12            4.9177     3.5784    -0.2845 C.3     
  13 N13            3.2627     6.3108     0.9220 N.am    
  14 C14            3.1436     5.3373    -0.0026 C.2     
  15 C15            4.2487     4.5211     1.9492 C.ar    
  16 C16            4.9013     3.8582     2.9795 C.ar    
  17 C17            5.2164     4.5414     4.1537 C.ar    
  18 C18            4.8765     5.8735     4.2825 C.ar    
  19 C19            4.2283     6.5322     3.2577 C.ar    
  20 C20            3.9064     5.8624     2.0784 C.ar    
  21 O21            2.6301     5.4350    -1.0971 O.2     
  22 C22           -0.8847     1.8006     2.5603 C.3     
  23 C23            0.2366     1.6092     3.5835 C.3     
  24 C24           -0.1933     2.1998     4.9278 C.3     
  25 C25            0.9280     2.0084     5.9510 C.3     
  26 C26            0.4980     2.5991     7.2953 C.3     
  27 C27            5.2622     2.4266     2.8321 C.ar    
  28 C28            4.7049     1.4749     3.6847 C.ar    
  29 C29            5.0434     0.1415     3.5439 C.ar    
  30 C30            5.9397    -0.2479     2.5513 C.ar    
  31 C31            6.4935     0.6994     1.7043 C.ar    
  32 C32            6.1540     2.0308     1.8376 C.ar    
  33 O33            6.2721    -1.5591     2.4133 O.3     
  34 C34            7.1969    -1.8880     1.3747 C.3     
  35 O35            4.5017    -0.7892     4.3745 O.3     
  36 C36            3.5905    -0.3187     5.3697 C.3     
  37 H37           -0.2033    -0.5777     2.3510 H       
  38 H38           -1.3415    -0.6838     0.9694 H       
  39 H39            3.3770    -0.2523    -0.2834 H       
  40 H40            0.9678     3.7066     1.4002 H       
  41 H41            5.8804     3.9340     0.0829 H       
  42 H42            4.7719     3.8606    -1.3272 H       
  43 H43            2.9395     7.2170     0.7990 H       
  44 H44            5.7237     4.0308     4.9589 H       
  45 H45            5.1200     6.4036     5.1914 H       
  46 H46            3.9681     7.5744     3.3704 H       
  47 H47           -1.0899     2.8644     2.4408 H       
  48 H48           -1.7847     1.2939     2.9086 H       
  49 H49            0.4418     0.5454     3.7030 H       
  50 H50            1.1367     2.1159     3.2352 H       
  51 H51           -0.3985     3.2636     4.8083 H       
  52 H52           -1.0934     1.6931     5.2761 H       
  53 H53            1.1332     0.9446     6.0705 H       
  54 H54            1.8280     2.5151     5.6027 H       
  55 H55            1.2969     2.4627     8.0242 H       
  56 H56            0.2929     3.6629     7.1758 H       
  57 H57           -0.4020     2.0924     7.6436 H       
  58 H58            4.0104     1.7785     4.4541 H       
  59 H59            7.1887     0.3948     0.9360 H       
  60 H60            6.5834     2.7665     1.1737 H       
  61 H61            8.1371    -1.3639     1.5460 H       
  62 H62            7.3752    -2.9633     1.3741 H       
  63 H63            6.7838    -1.5876     0.4118 H       
  64 H64            3.2333    -1.1608     5.9625 H       
  65 H65            4.0985     0.3937     6.0197 H       
  66 H66            2.7447     0.1699     4.8860 H       
@<TRIPOS>BOND
   1    1    2 1
   2    1    5 1
   3    1   22 1
   4    2    3 1
   5    2   37 1
   6    2   38 1
   7    3    4 1
   8    4    5 ar
   9    4    6 ar
  10    5    9 ar
  11    6    7 ar
  12    6   39 1
  13    7    8 ar
  14    7   10 1
  15    8    9 ar
  16    8   11 1
  17    9   40 1
  18   10   12 1
  19   11   12 1
  20   11   14 1
  21   11   15 1
  22   12   41 1
  23   12   42 1
  24   13   14 am
  25   13   20 1
  26   13   43 1
  27   14   21 2
  28   15   16 ar
  29   15   20 ar
  30   16   17 ar
  31   16   27 1
  32   17   18 ar
  33   17   44 1
  34   18   19 ar
  35   18   45 1
  36   19   20 ar
  37   19   46 1
  38   22   23 1
  39   22   47 1
  40   22   48 1
  41   23   24 1
  42   23   49 1
  43   23   50 1
  44   24   25 1
  45   24   51 1
  46   24   52 1
  47   25   26 1
  48   25   53 1
  49   25   54 1
  50   26   55 1
  51   26   56 1
  52   26   57 1
  53   27   28 ar
  54   27   32 ar
  55   28   29 ar
  56   28   58 1
  57   29   30 ar
  58   29   35 1
  59   30   31 ar
  60   30   33 1
  61   31   32 ar
  62   31   59 1
  63   32   60 1
  64   33   34 1
  65   34   61 1
  66   34   62 1
  67   34   63 1
  68   35   36 1
  69   36   64 1
  70   36   65 1
  71   36   66 1

#	End of record

