#	Name: ASD00431367
#	Creating user name:	WinNT
#	Creation time:	15. 06. 2019 18:35

#	Modifying user name:	WinNT
#	Modification time:	15. 06. 2019 18:35

#	Program:	/corina/corina34_cracker 3.40 0067  02.08.2006

@<TRIPOS>MOLECULE
ASD00431367
  36   37    0    0    0
SMALL
NO_CHARGES


@<TRIPOS>ATOM
   1 C1            -0.1108     1.1938    -0.5957 C.2     
   2 N2             0.0001    -0.0077     0.0047 N.am    
   3 O3             0.8452     1.6767    -1.1697 O.2     
   4 O4            -1.2825     1.8567    -0.5641 O.3     
   5 C5             1.1926    -0.7370    -0.1015 C.ar    
   6 C6             1.1736    -2.1216     0.0163 C.ar    
   7 C7             2.3495    -2.8393    -0.0884 C.ar    
   8 C8             3.5487    -2.1776    -0.3113 C.ar    
   9 C9             3.5676    -0.7955    -0.4285 C.ar    
  10 C10            2.3919    -0.0771    -0.3301 C.ar    
  11 O11            4.7056    -2.8841    -0.4143 O.3     
  12 S12            6.1657    -4.7858    -1.7052 S.3     
  13 C13            4.8457    -3.7255    -1.4676 C.2     
  14 N14            3.9987    -3.8437    -2.4405 N.2     
  15 C15            4.2938    -4.7151    -3.3877 C.2     
  16 C16            5.4452    -5.3635    -3.2054 C.2     
  17 Cl17          -0.3268    -2.9489     0.2957 Cl      
  18 C18           -1.3290     3.1454    -1.2316 C.3     
  19 C19           -0.9992     2.9638    -2.7145 C.3     
  20 C20           -2.7305     3.7426    -1.0902 C.3     
  21 C21           -0.3063     4.0875    -0.5933 C.3     
  22 H22           -0.7453    -0.3679     0.5102 H       
  23 H23            2.3354    -3.9153     0.0034 H       
  24 H24            4.5015    -0.2812    -0.6012 H       
  25 H25            2.4066     0.9985    -0.4266 H       
  26 H26            3.6547    -4.8888    -4.2409 H       
  27 H27            5.8625    -6.1122    -3.8625 H       
  28 H28           -1.7278     2.2926    -3.1692 H       
  29 H29           -1.0341     3.9312    -3.2156 H       
  30 H30           -0.0008     2.5383    -2.8153 H       
  31 H31           -2.9654     3.8720    -0.0337 H       
  32 H32           -2.7654     4.7100    -1.5912 H       
  33 H33           -3.4590     3.0714    -1.5449 H       
  34 H34            0.6922     3.6620    -0.6941 H       
  35 H35           -0.3412     5.0549    -1.0944 H       
  36 H36           -0.5412     4.2169     0.4632 H       
@<TRIPOS>BOND
   1    1    2 am
   2    1    3 2
   3    1    4 1
   4    2    5 1
   5    2   22 1
   6    4   18 1
   7    5    6 ar
   8    5   10 ar
   9    6    7 ar
  10    6   17 1
  11    7    8 ar
  12    7   23 1
  13    8    9 ar
  14    8   11 1
  15    9   10 ar
  16    9   24 1
  17   10   25 1
  18   11   13 1
  19   12   13 1
  20   12   16 1
  21   13   14 2
  22   14   15 1
  23   15   16 2
  24   15   26 1
  25   16   27 1
  26   18   19 1
  27   18   21 1
  28   18   20 1
  29   19   28 1
  30   19   29 1
  31   19   30 1
  32   20   31 1
  33   20   32 1
  34   20   33 1
  35   21   34 1
  36   21   35 1
  37   21   36 1

#	End of record

