#	Name: ASD02320013
#	Creating user name:	WinNT
#	Creation time:	15. 06. 2019 20:20

#	Modifying user name:	WinNT
#	Modification time:	15. 06. 2019 20:20

#	Program:	/corina/corina34_cracker 3.40 0067  02.08.2006

@<TRIPOS>MOLECULE
ASD02320013
  42   43    0    0    0
SMALL
NO_CHARGES


@<TRIPOS>ATOM
   1 C1            -0.0167     1.3771     0.0096 C.ar    
   2 C2             0.0021    -0.0041     0.0020 C.ar    
   3 C3             1.2062    -0.6899    -0.0131 C.ar    
   4 C4             2.3989    -0.0011    -0.0208 C.ar    
   5 C5             2.3957     1.3986    -0.0133 C.ar    
   6 C6             1.1727     2.0887     0.0021 C.ar    
   7 C7             4.8377     1.4721    -0.0352 C.2     
   8 C8             3.6632     2.1407    -0.0209 C.2     
   9 C9             7.3921     0.0832    -0.0660 C.ar    
  10 C10            7.3803     1.4813    -0.0584 C.ar    
  11 C11            6.0991     2.2107    -0.0428 C.2     
  12 C12            8.5897    -0.5939    -0.0802 C.ar    
  13 C13            9.7915     0.1078    -0.0865 C.ar    
  14 C14            9.7913     1.4953    -0.0795 C.ar    
  15 C15            8.5933     2.1877    -0.0652 C.ar    
  16 O16            6.0918     3.4288    -0.0362 O.2     
  17 O17           10.9685    -0.5678    -0.1000 O.3     
  18 S18           11.4937    -0.8685    -1.4965 S.o2    
  19 O19           12.6040    -1.7393    -1.3287 O.2     
  20 O20           10.3609    -1.1971    -2.2890 O.2     
  21 O21           12.0488     0.4323    -2.0588 O.3     
  22 Na22          13.8031     0.9651    -1.2850 Du      
  23 O23            8.5911     3.5444    -0.0584 O.3     
  24 S24            8.5776     4.1705    -1.4456 S.o2    
  25 O25            8.7794     5.5646    -1.2586 O.2     
  26 O26            9.4211     3.3651    -2.2575 O.2     
  27 O27            7.1687     4.0105    -1.9984 O.3     
  28 Na28           5.8379     5.2527    -1.1947 Du      
  29 O29            1.1555     3.4454     0.0091 O.3     
  30 C30           -0.1258     4.0779     0.0247 C.3     
  31 H31           -0.9597     1.9034     0.0169 H       
  32 H32           -0.9279    -0.5531     0.0083 H       
  33 H33            1.2094    -1.7699    -0.0186 H       
  34 H34            3.3348    -0.5399    -0.0323 H       
  35 H35            4.8443     0.3921    -0.0411 H       
  36 H36            3.6566     3.2207    -0.0150 H       
  37 H37            6.4616    -0.4650    -0.0564 H       
  38 H38            8.5972    -1.6738    -0.0860 H       
  39 H39           10.7267     2.0352    -0.0840 H       
  40 H40           -0.6877     3.7824    -0.8614 H       
  41 H41           -0.6704     3.7735     0.9185 H       
  42 H42            0.0032     5.1602     0.0289 H       
@<TRIPOS>BOND
   1    1    2 ar
   2    1    6 ar
   3    1   31 1
   4    2    3 ar
   5    2   32 1
   6    3    4 ar
   7    3   33 1
   8    4    5 ar
   9    4   34 1
  10    5    6 ar
  11    5    8 1
  12    6   29 1
  13    7    8 2
  14    7   11 1
  15    7   35 1
  16    8   36 1
  17    9   10 ar
  18    9   12 ar
  19    9   37 1
  20   10   11 1
  21   10   15 ar
  22   11   16 2
  23   12   13 ar
  24   12   38 1
  25   13   14 ar
  26   13   17 1
  27   14   15 ar
  28   14   39 1
  29   15   23 1
  30   17   18 1
  31   18   19 2
  32   18   20 2
  33   18   21 1
  34   21   22 1
  35   23   24 1
  36   24   25 2
  37   24   26 2
  38   24   27 1
  39   27   28 1
  40   29   30 1
  41   30   40 1
  42   30   41 1
  43   30   42 1

#	End of record

