#	Name: ASD01882945
#	Creating user name:	WinNT
#	Creation time:	15. 06. 2019 19:45

#	Modifying user name:	WinNT
#	Modification time:	15. 06. 2019 19:45

#	Program:	/corina/corina34_cracker 3.40 0067  02.08.2006

@<TRIPOS>MOLECULE
ASD01882945
  47   50    0    0    0
SMALL
NO_CHARGES


@<TRIPOS>ATOM
   1 C1            -0.0159     1.3220     0.0093 C.2     
   2 N2             0.0021    -0.0041     0.0020 N.2     
   3 C3             1.1523    -0.6857    -0.0126 C.2     
   4 C4             2.3835     0.0173    -0.0206 C.2     
   5 C5             2.3523     1.3664    -0.0131 C.2     
   6 N6             1.1484     2.0132     0.0019 N.pl3   
   7 O7            -1.0993     2.1290     0.0184 O.3     
   8 C8             0.8540     3.4562     0.0125 C.3     
   9 C9            -0.6831     3.5211     0.0242 C.3     
  10 O10            1.1423    -1.9071    -0.0187 O.2     
  11 C11           -1.1944     4.2379    -1.2270 C.3     
  12 O12           -2.6209     4.3119    -1.1842 O.3     
  13 C13           -4.4976     6.1710    -4.3576 C.ar    
  14 C14           -5.2523     5.6495    -3.3082 C.ar    
  15 C15           -4.6226     5.0291    -2.2496 C.ar    
  16 C16           -3.2385     4.9233    -2.2288 C.ar    
  17 C17           -2.4842     5.4413    -3.2727 C.ar    
  18 C18           -3.1082     6.0633    -4.3339 C.ar    
  19 C19           -5.1723     6.8336    -5.5007 C.ar    
  20 C20           -4.4176     7.3551    -6.5501 C.ar    
  21 C21           -5.0477     7.9705    -7.6114 C.ar    
  22 C22           -6.4321     8.0709    -7.6351 C.ar    
  23 C23           -7.1864     7.5524    -6.5914 C.ar    
  24 C24           -6.5624     6.9308    -5.5302 C.ar    
  25 O25           -7.0500     8.6782    -8.6819 O.3     
  26 C26           -8.4768     8.7467    -8.6421 C.3     
  27 C27           -8.9884     9.4595    -9.8955 C.3     
  28 H28            3.3237    -0.5140    -0.0321 H       
  29 H29            3.2727     1.9314    -0.0185 H       
  30 H30            1.2651     3.9237     0.9072 H       
  31 H31            1.2480     3.9334    -0.8848 H       
  32 H32           -1.0396     4.0220     0.9243 H       
  33 H33           -0.7793     5.2451    -1.2639 H       
  34 H34           -0.8857     3.6850    -2.1142 H       
  35 H35           -6.3291     5.7318    -3.3237 H       
  36 H36           -5.2068     4.6248    -1.4362 H       
  37 H37           -1.4076     5.3576    -3.2538 H       
  38 H38           -2.5208     6.4661    -5.1457 H       
  39 H39           -3.3405     7.2776    -6.5320 H       
  40 H40           -4.4634     8.3751    -8.4246 H       
  41 H41           -8.2633     7.6320    -6.6127 H       
  42 H42           -7.1500     6.5237    -4.7206 H       
  43 H43           -8.8881     7.7380    -8.6044 H       
  44 H44           -8.7894     9.2999    -7.7564 H       
  45 H45           -8.5771    10.4683    -9.9332 H       
  46 H46           -8.6758     8.9064   -10.7812 H       
  47 H47          -10.0767     9.5118    -9.8651 H       
@<TRIPOS>BOND
   1    1    2 2
   2    1    6 1
   3    1    7 1
   4    2    3 1
   5    3    4 1
   6    3   10 2
   7    4    5 2
   8    4   28 1
   9    5    6 1
  10    5   29 1
  11    6    8 1
  12    7    9 1
  13    8    9 1
  14    8   30 1
  15    8   31 1
  16    9   11 1
  17    9   32 1
  18   11   12 1
  19   11   33 1
  20   11   34 1
  21   12   16 1
  22   13   14 ar
  23   13   18 ar
  24   13   19 1
  25   14   15 ar
  26   14   35 1
  27   15   16 ar
  28   15   36 1
  29   16   17 ar
  30   17   18 ar
  31   17   37 1
  32   18   38 1
  33   19   20 ar
  34   19   24 ar
  35   20   21 ar
  36   20   39 1
  37   21   22 ar
  38   21   40 1
  39   22   23 ar
  40   22   25 1
  41   23   24 ar
  42   23   41 1
  43   24   42 1
  44   25   26 1
  45   26   27 1
  46   26   43 1
  47   26   44 1
  48   27   45 1
  49   27   46 1
  50   27   47 1

#	End of record

