#	Name: ASD01908032
#	Creating user name:	WinNT
#	Creation time:	15. 06. 2019 19:54

#	Modifying user name:	WinNT
#	Modification time:	15. 06. 2019 19:54

#	Program:	/corina/corina34_cracker 3.40 0067  02.08.2006

@<TRIPOS>MOLECULE
ASD01908032
  42   45    0    0    0
SMALL
NO_CHARGES


@<TRIPOS>ATOM
   1 C1            -0.0168     1.3851     0.0097 C.ar    
   2 C2             0.0021    -0.0041     0.0020 C.ar    
   3 C3             1.2200    -0.6608    -0.0132 C.ar    
   4 C4             2.3819     0.0991    -0.0202 C.ar    
   5 C5             2.2883     1.4765    -0.0120 C.ar    
   6 N6             1.1121     2.0744     0.0026 N.ar    
   7 O7            -1.2045     2.0409     0.0188 O.3     
   8 S8             0.2359     4.3490     0.0240 S.3     
   9 C9            -1.1830     3.3964     0.0261 C.2     
  10 N10           -2.2333     4.1509     0.0352 N.2     
  11 C11           -2.0309     5.4630     0.0409 C.2     
  12 C12           -0.7333     5.8198     0.0363 C.2     
  13 Cl13          -0.1220     7.4446     0.0416 Cl      
  14 N14           -5.0641     7.4302    -0.3169 N.pl3   
  15 N15           -4.2885     8.2758     0.4855 N.2     
  16 C16           -3.1383     7.6964     0.7088 C.2     
  17 C17           -3.1400     6.4512     0.0515 C.2     
  18 C18           -4.3447     6.3166    -0.5732 C.2     
  19 C19           -6.4231     7.7034    -0.7909 C.3     
  20 C20           -7.3136     8.0092     0.3858 C.ar    
  21 C21           -7.4528     9.3127     0.8255 C.ar    
  22 C22           -8.2685     9.5956     1.9039 C.ar    
  23 C23           -8.9482     8.5706     2.5458 C.ar    
  24 C24           -8.8068     7.2636     2.1027 C.ar    
  25 C25           -7.9943     6.9866     1.0203 C.ar    
  26 O26           -9.7509     8.8463     3.6072 O.3     
  27 C27          -10.4196     7.7416     4.2191 C.3     
  28 H28           -0.9215    -0.5639     0.0082 H       
  29 H29            1.2657    -1.7398    -0.0191 H       
  30 H30            3.3487    -0.3822    -0.0317 H       
  31 H31            3.1891     2.0722    -0.0170 H       
  32 H32           -2.3274     8.1024     1.2952 H       
  33 H33           -4.6653     5.4724    -1.1657 H       
  34 H34           -6.4071     8.5587    -1.4664 H       
  35 H35           -6.8061     6.8303    -1.3191 H       
  36 H36           -6.9232    10.1102     0.3257 H       
  37 H37           -8.3767    10.6138     2.2473 H       
  38 H38           -9.3348     6.4639     2.6007 H       
  39 H39           -7.8876     5.9699     0.6719 H       
  40 H40          -11.0614     7.2537     3.4855 H       
  41 H41           -9.6817     7.0288     4.5873 H       
  42 H42          -11.0259     8.0995     5.0513 H       
@<TRIPOS>BOND
   1    1    2 ar
   2    1    6 ar
   3    1    7 1
   4    2    3 ar
   5    2   28 1
   6    3    4 ar
   7    3   29 1
   8    4    5 ar
   9    4   30 1
  10    5    6 ar
  11    5   31 1
  12    7    9 1
  13    8    9 1
  14    8   12 1
  15    9   10 2
  16   10   11 1
  17   11   12 2
  18   11   17 1
  19   12   13 1
  20   14   15 1
  21   14   18 1
  22   14   19 1
  23   15   16 2
  24   16   17 1
  25   16   32 1
  26   17   18 2
  27   18   33 1
  28   19   20 1
  29   19   34 1
  30   19   35 1
  31   20   21 ar
  32   20   25 ar
  33   21   22 ar
  34   21   36 1
  35   22   23 ar
  36   22   37 1
  37   23   24 ar
  38   23   26 1
  39   24   25 ar
  40   24   38 1
  41   25   39 1
  42   26   27 1
  43   27   40 1
  44   27   41 1
  45   27   42 1

#	End of record

