#	Name: ASD00510026
#	Creating user name:	WinNT
#	Creation time:	15. 06. 2019 18:36

#	Modifying user name:	WinNT
#	Modification time:	15. 06. 2019 18:36

#	Program:	/corina/corina34_cracker 3.40 0067  02.08.2006

@<TRIPOS>MOLECULE
ASD00510026
  49   52    0    0    0
SMALL
NO_CHARGES


@<TRIPOS>ATOM
   1 C1            -0.0890     0.8743    -0.1568 C.ar    
   2 C2             0.2927    -0.4533     0.0658 C.ar    
   3 C3             1.5957    -0.7422     0.3465 C.ar    
   4 C4             2.5526     0.2669     0.4148 C.ar    
   5 C5             2.2145     1.5694     0.2038 C.ar    
   6 C6             0.8812     1.9029    -0.0882 C.ar    
   7 C7             0.4953     3.2371    -0.3120 C.ar    
   8 C8            -0.7971     3.5507    -0.5925 C.ar    
   9 C9            -1.7894     2.5746    -0.6710 C.ar    
  10 C10           -1.4744     1.2282    -0.4667 C.ar    
  11 N11           -2.4342     0.2707    -0.5472 N.2     
  12 N12           -3.6681     0.6069    -0.7157 N.2     
  13 C13           -4.6308    -0.3529    -0.7927 C.ar    
  14 C14           -6.9828    -1.0298    -1.1851 C.ar    
  15 C15           -6.5974    -2.3595    -0.9434 C.ar    
  16 C16           -5.3059    -2.6645    -0.6396 C.ar    
  17 C17           -4.3220    -1.6889    -0.5602 C.ar    
  18 C18           -6.0130    -0.0003    -1.1157 C.ar    
  19 C19           -6.3928     1.3252    -1.3552 C.ar    
  20 C20           -7.6924     1.6106    -1.6528 C.ar    
  21 C21           -8.6489     0.6006    -1.7215 C.ar    
  22 C22           -8.3136    -0.6993    -1.4937 C.ar    
  23 O23           -3.0671     2.9330    -0.9533 O.3     
  24 S24            4.2258    -0.1472     0.7802 S.o2    
  25 O25            4.8209     1.0254     1.3187 O.2     
  26 O26            4.1903    -1.3884     1.4712 O.2     
  27 O27            4.9239    -0.4133    -0.5458 O.3     
  28 S28           -7.7997    -3.6448    -1.0283 S.o2    
  29 O29           -8.2322    -3.8784     0.3049 O.2     
  30 O30           -8.6859    -3.2961    -2.0830 O.2     
  31 O31           -7.0778    -4.9084    -1.4737 O.3     
  32 S32           -0.9034    -1.7446    -0.0156 S.o2    
  33 O33           -1.5728    -1.7510     1.2378 O.2     
  34 O34           -1.5783    -1.5887    -1.2564 O.2     
  35 O35           -0.1418    -3.0594    -0.1029 O.3     
  36 H36            1.8890    -1.7673     0.5184 H       
  37 H37            2.9673     2.3416     0.2607 H       
  38 H38            1.2351     4.0222    -0.2598 H       
  39 H39           -1.0626     4.5843    -0.7587 H       
  40 H40           -5.0387    -3.6952    -0.4587 H       
  41 H41           -3.3081    -1.9696    -0.3162 H       
  42 H42           -5.6607     2.1176    -1.3043 H       
  43 H43           -7.9842     2.6339    -1.8374 H       
  44 H44           -9.6720     0.8522    -1.9588 H       
  45 H45           -9.0659    -1.4722    -1.5507 H       
  46 H46           -3.2741     2.9402    -1.8979 H       
  47 H47            5.8570    -0.6516    -0.4582 H       
  48 H48           -7.6521    -5.6823    -1.5532 H       
  49 H49           -0.7097    -3.8404    -0.1524 H       
@<TRIPOS>BOND
   1    1    2 ar
   2    1    6 ar
   3    1   10 ar
   4    2    3 ar
   5    2   32 1
   6    3    4 ar
   7    3   36 1
   8    4    5 ar
   9    4   24 1
  10    5    6 ar
  11    5   37 1
  12    6    7 ar
  13    7    8 ar
  14    7   38 1
  15    8    9 ar
  16    8   39 1
  17    9   10 ar
  18    9   23 1
  19   10   11 1
  20   11   12 2
  21   12   13 1
  22   13   18 ar
  23   13   17 ar
  24   14   15 ar
  25   14   18 ar
  26   14   22 ar
  27   15   16 ar
  28   15   28 1
  29   16   17 ar
  30   16   40 1
  31   17   41 1
  32   18   19 ar
  33   19   20 ar
  34   19   42 1
  35   20   21 ar
  36   20   43 1
  37   21   22 ar
  38   21   44 1
  39   22   45 1
  40   23   46 1
  41   24   25 2
  42   24   26 2
  43   24   27 1
  44   27   47 1
  45   28   29 2
  46   28   30 2
  47   28   31 1
  48   31   48 1
  49   32   33 2
  50   32   34 2
  51   32   35 1
  52   35   49 1

#	End of record

