#	Name: ASD01881692
#	Creating user name:	WinNT
#	Creation time:	15. 06. 2019 19:43

#	Modifying user name:	WinNT
#	Modification time:	15. 06. 2019 19:43

#	Program:	/corina/corina34_cracker 3.40 0067  02.08.2006

@<TRIPOS>MOLECULE
ASD01881692
  54   57    0    0    0
SMALL
NO_CHARGES


@<TRIPOS>ATOM
   1 N1             0.2015     0.8045     3.0010 N.pl3   
   2 N2             0.2633    -0.4809     2.9438 N.2     
   3 N3             1.4329    -0.8873     2.5942 N.2     
   4 C4             2.2332     0.1796     2.3961 C.ar    
   5 C5             1.4340     1.3079     2.6611 C.ar    
   6 C6             3.5670     0.3533     2.0173 C.ar    
   7 C7             4.0816     1.6301     1.9084 C.ar    
   8 C8             3.2806     2.7384     2.1733 C.ar    
   9 C9             1.9742     2.5820     2.5440 C.ar    
  10 O10            5.3789     1.8066     1.5407 O.3     
  11 C11            5.8492     3.1527     1.4467 C.3     
  12 N12           10.0479     3.8330     1.3252 N.am    
  13 C13            9.2504     4.5831     0.3454 C.3     
  14 C14            7.7882     4.5908     0.8021 C.3     
  15 C15            7.3195     3.1508     1.0237 C.3     
  16 C16            8.1650     2.5006     2.1212 C.3     
  17 C17            9.6315     2.4692     1.6794 C.3     
  18 C18           11.1439     4.3833     1.8841 C.2     
  19 C19           11.6249     5.7360     1.4260 C.3     
  20 C20           12.4964     6.3634     2.5159 C.3     
  21 O21           11.7430     3.7899     2.7558 O.2     
  22 C22           12.4457     5.5783     0.1445 C.3     
  23 C23           -0.9798     1.5930     3.3601 C.3     
  24 C24           -0.9977     1.8253     4.8723 C.3     
  25 C25           -2.0946     2.7314     5.4349 C.3     
  26 C26           -2.1572     1.2203     5.6663 C.3     
  27 Br27           4.6588    -1.1481     1.6572 Br      
  28 H28            3.6958     3.7315     2.0847 H       
  29 H29            1.3626     3.4488     2.7466 H       
  30 H30            5.2589     3.6930     0.7066 H       
  31 H31            5.7507     3.6405     2.4165 H       
  32 H32            9.6187     5.6070     0.2816 H       
  33 H33            9.3258     4.1040    -0.6308 H       
  34 H34            7.7011     5.1492     1.7342 H       
  35 H35            7.1704     5.0607     0.0369 H       
  36 H36            7.4303     2.5864     0.0978 H       
  37 H37            8.0744     3.0787     3.0408 H       
  38 H38            7.8155     1.4828     2.2948 H       
  39 H39            9.7380     1.8177     0.8120 H       
  40 H40           10.2512     2.0984     2.4958 H       
  41 H41           10.7672     6.3798     1.2312 H       
  42 H42           13.3541     5.7196     2.7107 H       
  43 H43           12.8443     7.3418     2.1845 H       
  44 H44           11.9116     6.4757     3.4289 H       
  45 H45           11.8096     5.1844    -0.6482 H       
  46 H46           12.8411     6.5488    -0.1554 H       
  47 H47           13.2711     4.8894     0.3241 H       
  48 H48           -0.9459     2.5533     2.8454 H       
  49 H49           -1.8800     1.0541     3.0646 H       
  50 H50           -0.0206     1.8589     5.3543 H       
  51 H51           -1.8393     3.3609     6.2874 H       
  52 H52           -2.8035     3.1622     4.7278 H       
  53 H53           -2.9073     0.6569     5.1113 H       
  54 H54           -1.9431     0.8557     6.6709 H       
@<TRIPOS>BOND
   1    1    2 1
   2    1    5 1
   3    1   23 1
   4    2    3 2
   5    3    4 1
   6    4    5 ar
   7    4    6 ar
   8    5    9 ar
   9    6    7 ar
  10    6   27 1
  11    7    8 ar
  12    7   10 1
  13    8    9 ar
  14    8   28 1
  15    9   29 1
  16   10   11 1
  17   11   15 1
  18   11   30 1
  19   11   31 1
  20   12   13 1
  21   12   17 1
  22   12   18 am
  23   13   14 1
  24   13   32 1
  25   13   33 1
  26   14   15 1
  27   14   34 1
  28   14   35 1
  29   15   16 1
  30   15   36 1
  31   16   17 1
  32   16   37 1
  33   16   38 1
  34   17   39 1
  35   17   40 1
  36   18   19 1
  37   18   21 2
  38   19   20 1
  39   19   22 1
  40   19   41 1
  41   20   42 1
  42   20   43 1
  43   20   44 1
  44   22   45 1
  45   22   46 1
  46   22   47 1
  47   23   24 1
  48   23   48 1
  49   23   49 1
  50   24   25 1
  51   24   26 1
  52   24   50 1
  53   25   26 1
  54   25   51 1
  55   25   52 1
  56   26   53 1
  57   26   54 1

#	End of record

