#	Name: ASD03091622
#	Creating user name:	WinNT
#	Creation time:	15. 06. 2019 20:31

#	Modifying user name:	WinNT
#	Modification time:	15. 06. 2019 20:31

#	Program:	/corina/corina34_cracker 3.40 0067  02.08.2006

@<TRIPOS>MOLECULE
ASD03091622
  43   45    0    0    0
SMALL
NO_CHARGES


@<TRIPOS>ATOM
   1 Cl1            0.0000     0.0000     0.0000 Cl      
   2 H2             0.0000     1.3700     0.0000 H       
   3 C3            12.3367    10.2388     6.5998 C.2     
   4 S4            12.3605     8.4841     6.5901 S.3     
   5 C5            14.1202     8.4583     6.5732 C.ar    
   6 C6            14.6083     9.7709     6.5756 C.ar    
   7 C7            13.5808    10.7279     6.5905 C.2     
   8 C8            16.0095     9.9725     6.5637 C.ar    
   9 C9            16.8589     8.9115     6.5503 C.ar    
  10 C10           16.3693     7.6108     6.5475 C.ar    
  11 C11           15.0145     7.3826     6.5593 C.ar    
  12 C12           11.1163    11.0583     6.6102 C.2     
  13 O13           11.1987    12.2719     6.6159 O.2     
  14 N14            9.9062    10.4649     6.6134 N.am    
  15 N15            7.0120    11.1378     8.4012 N.3     
  16 C16            8.3414    11.6647     8.0649 C.3     
  17 C17            8.6900    11.2816     6.6237 C.3     
  18 C18            7.5262    10.4780     6.0300 C.3     
  19 C19            6.2595    11.3416     6.0801 C.3     
  20 C20            5.9780    11.7225     7.5363 C.3     
  21 C21            6.9915     9.6704     8.3271 C.3     
  22 C22            7.3022     9.2303     6.8937 C.3     
  23 C23           18.3471     9.1479     6.5378 C.3     
  24 H24           13.7823    11.7889     6.5940 H       
  25 H25           16.4065    10.9769     6.5650 H       
  26 H26           17.0557     6.7771     6.5365 H       
  27 H27           14.6389     6.3700     6.5578 H       
  28 H28            9.8405     9.4971     6.6088 H       
  29 H29            8.3374    12.7504     8.1617 H       
  30 H30            9.0825    11.2416     8.7430 H       
  31 H31            8.8489    12.1844     6.0340 H       
  32 H32            7.7497    10.1999     5.0000 H       
  33 H33            6.4097    12.2449     5.4888 H       
  34 H34            5.4168    10.7774     5.6807 H       
  35 H35            5.0000    11.3408     7.8295 H       
  36 H36            5.9904    12.8078     7.6372 H       
  37 H37            7.7418     9.2615     9.0038 H       
  38 H38            6.0052     9.3055     8.6138 H       
  39 H39            6.4637     8.6576     6.4976 H       
  40 H40            8.2022     8.6154     6.8875 H       
  41 H41           18.7154     9.1995     7.5624 H       
  42 H42           18.8408     8.3287     6.0151 H       
  43 H43           18.5616    10.0866     6.0269 H       
@<TRIPOS>BOND
   1    1    2 1
   2    3    4 1
   3    3    7 2
   4    3   12 1
   5    4    5 1
   6    5    6 ar
   7    5   11 ar
   8    6    7 1
   9    6    8 ar
  10    7   24 1
  11    8    9 ar
  12    8   25 1
  13    9   10 ar
  14    9   23 1
  15   10   11 ar
  16   10   26 1
  17   11   27 1
  18   12   13 2
  19   12   14 am
  20   14   17 1
  21   14   28 1
  22   15   16 1
  23   15   20 1
  24   15   21 1
  25   16   17 1
  26   16   29 1
  27   16   30 1
  28   17   18 1
  29   17   31 1
  30   18   19 1
  31   18   22 1
  32   18   32 1
  33   19   20 1
  34   19   33 1
  35   19   34 1
  36   20   35 1
  37   20   36 1
  38   21   22 1
  39   21   37 1
  40   21   38 1
  41   22   39 1
  42   22   40 1
  43   23   41 1
  44   23   42 1
  45   23   43 1

#	End of record

