#	Name: ASD01130001
#	Creating user name:	WinNT
#	Creation time:	15. 06. 2019 18:59

#	Modifying user name:	WinNT
#	Modification time:	15. 06. 2019 18:59

#	Program:	/corina/corina34_cracker 3.40 0067  02.08.2006

@<TRIPOS>MOLECULE
ASD01130001
  74   73    0    0    0
SMALL
NO_CHARGES


@<TRIPOS>ATOM
   1 O1             1.9442     3.7730     0.3042 O.2     
   2 C2             1.3372     4.8121     0.4552 C.2     
   3 N3             2.0054     5.9480     0.7373 N.am    
   4 C4             3.4650     5.9276     0.8616 C.3     
   5 C5             3.9617     7.3148     1.1780 C.2     
   6 O6             5.2758     7.5371     1.3372 O.3     
   7 O7             3.1769     8.2269     1.2884 O.2     
   8 C8            -0.1637     4.8343     0.3212 C.3     
   9 C9            -0.7862     5.3061     1.6368 C.3     
  10 S10           -2.5928     5.3329     1.4756 S.o2    
  11 S11           -3.4269     5.9651     3.2382 S.3     
  12 C12           -5.1803     6.1565     2.8145 C.3     
  13 C13           -5.8465     4.7800     2.7663 C.3     
  14 N14           -7.2876     4.9419     2.5579 N.am    
  15 C15           -8.0072     3.9389     2.0170 C.2     
  16 C16           -9.5049     4.0620     1.9038 C.3     
  17 C17          -10.0869     2.7461     1.3836 C.3     
  18 C18          -11.6074     2.8711     1.2686 C.3     
  19 N19          -12.1865     3.0501     2.6067 N.3     
  20 C20          -12.1682     1.6207     0.6417 C.2     
  21 O21          -12.1148     1.4552    -0.6892 O.3     
  22 O22          -12.6659     0.7671     1.3372 O.2     
  23 O23           -7.4494     2.9373     1.6213 O.2     
  24 C24           -5.6050     4.0591     4.0674 C.2     
  25 N25           -4.4208     3.4570     4.2945 N.am    
  26 C26           -4.2244     2.6615     5.5090 C.3     
  27 C27           -2.8255     2.1012     5.5217 C.2     
  28 O28           -2.4187     1.3350     6.5460 O.3     
  29 O29           -2.0701     2.3415     4.6099 O.2     
  30 O30           -6.4762     4.0209     4.9103 O.2     
  31 N31           -0.6460     3.4868     0.0084 N.am    
  32 C32           -0.6676     3.0585    -1.2693 C.2     
  33 C33           -1.1637     1.6724    -1.5912 C.3     
  34 C34           -1.0840     1.4400    -3.1013 C.3     
  35 C35           -1.5878     0.0328    -3.4280 C.3     
  36 N36           -0.6840    -0.9611    -2.8337 N.3     
  37 C37           -1.6252    -0.1529    -4.9231 C.2     
  38 O38           -2.6492     0.3428    -5.6355 O.3     
  39 O39           -0.7335    -0.7478    -5.4805 O.2     
  40 O40           -0.2876     3.7886    -2.1601 O.2     
  41 S41           -3.0614     6.4621     0.1496 S.2     
  42 S42           -3.1866     3.6740     1.0904 S.2     
  43 H43            1.5200     6.7790     0.8581 H       
  44 H44            3.7519     5.2472     1.6634 H       
  45 H45            3.9048     5.5894    -0.0767 H       
  46 H46            5.5465     8.4432     1.5392 H       
  47 H47           -0.4469     5.5167    -0.4801 H       
  48 H48           -0.5030     4.6237     2.4382 H       
  49 H49           -0.4273     6.3087     1.8696 H       
  50 H50           -5.6713     6.7716     3.5686 H       
  51 H51           -5.2683     6.6370     1.8401 H       
  52 H52           -5.4237     4.2002     1.9458 H       
  53 H53           -7.7238     5.7710     2.8094 H       
  54 H54           -9.9264     4.2833     2.8843 H       
  55 H55           -9.7520     4.8673     1.2120 H       
  56 H56           -9.6653     2.5249     0.4030 H       
  57 H57           -9.8397     1.9409     2.0754 H       
  58 H58          -11.8553     3.7317     0.6473 H       
  59 H59          -11.9706     2.2647     3.2023 H       
  60 H60          -11.8758     3.9154     3.0225 H       
  61 H61          -12.4874     0.6369    -1.0452 H       
  62 H62           -3.6985     3.5502     3.6537 H       
  63 H63           -4.3706     3.2936     6.3848 H       
  64 H64           -4.9439     1.8430     5.5275 H       
  65 H65           -1.5129     0.9984     6.5099 H       
  66 H66           -0.9499     2.9029     0.7208 H       
  67 H67           -0.5452     0.9366    -1.0772 H       
  68 H68           -2.1979     1.5711    -1.2620 H       
  69 H69           -1.7026     2.1758    -3.6153 H       
  70 H70           -0.0499     1.5413    -3.4304 H       
  71 H71           -2.5902    -0.0981    -3.0205 H       
  72 H72            0.2525    -0.8605    -3.1957 H       
  73 H73           -0.6908    -0.8996    -1.8266 H       
  74 H74           -2.6293     0.1986    -6.5915 H       
@<TRIPOS>BOND
   1    1    2 2
   2    2    3 am
   3    2    8 1
   4    3    4 1
   5    3   43 1
   6    4    5 1
   7    4   44 1
   8    4   45 1
   9    5    6 1
  10    5    7 2
  11    6   46 1
  12    8    9 1
  13    8   31 1
  14    8   47 1
  15    9   10 1
  16    9   48 1
  17    9   49 1
  18   10   11 1
  19   10   41 2
  20   10   42 2
  21   11   12 1
  22   12   13 1
  23   12   50 1
  24   12   51 1
  25   13   14 1
  26   13   24 1
  27   13   52 1
  28   14   15 am
  29   14   53 1
  30   15   16 1
  31   15   23 2
  32   16   17 1
  33   16   54 1
  34   16   55 1
  35   17   18 1
  36   17   56 1
  37   17   57 1
  38   18   19 1
  39   18   20 1
  40   18   58 1
  41   19   59 1
  42   19   60 1
  43   20   21 1
  44   20   22 2
  45   21   61 1
  46   24   25 am
  47   24   30 2
  48   25   26 1
  49   25   62 1
  50   26   27 1
  51   26   63 1
  52   26   64 1
  53   27   28 1
  54   27   29 2
  55   28   65 1
  56   31   32 am
  57   31   66 1
  58   32   33 1
  59   32   40 2
  60   33   34 1
  61   33   67 1
  62   33   68 1
  63   34   35 1
  64   34   69 1
  65   34   70 1
  66   35   36 1
  67   35   37 1
  68   35   71 1
  69   36   72 1
  70   36   73 1
  71   37   38 1
  72   37   39 2
  73   38   74 1

#	End of record

