#	Name: ASD00311085
#	Creating user name:	WinNT
#	Creation time:	15. 06. 2019 18:34

#	Modifying user name:	WinNT
#	Modification time:	15. 06. 2019 18:34

#	Program:	/corina/corina34_cracker 3.40 0067  02.08.2006

@<TRIPOS>MOLECULE
ASD00311085
  36   39    0    0    0
SMALL
NO_CHARGES


@<TRIPOS>ATOM
   1 C1            -0.0167     1.3776     0.0096 C.2     
   2 C2             0.0021    -0.0041     0.0020 C.2     
   3 C3             1.2586    -0.6767    -0.0131 C.2     
   4 C4             2.4315     0.0672    -0.0199 C.2     
   5 C5             2.3576     1.4750    -0.0117 C.2     
   6 N6             1.1650     2.0902     0.0022 N.am    
   7 C7            -1.3434    -0.5753     0.0118 C.2     
   8 C8            -2.3232     0.3266     0.0260 C.2     
   9 S9            -1.6791     1.9565     0.0358 S.3     
  10 O10            3.3825     2.1371    -0.0175 O.2     
  11 C11            3.7476    -0.6122    -0.0352 C.ar    
  12 C12            4.5937    -0.4749    -1.1354 C.ar    
  13 C13            5.8185    -1.1103    -1.1437 C.ar    
  14 C14            6.2076    -1.8828    -0.0639 C.ar    
  15 C15            5.3726    -2.0228     1.0303 C.ar    
  16 C16            4.1481    -1.3873     1.0530 C.ar    
  17 O17            1.3084    -2.0292    -0.0204 O.3     
  18 C18           -1.5961    -2.0355     0.0056 C.ar    
  19 C19           -1.7275    -2.7193    -1.2051 C.ar    
  20 C20           -1.9630    -4.0808    -1.2032 C.ar    
  21 C21           -2.0689    -4.7651    -0.0054 C.ar    
  22 C22           -1.9400    -4.0923     1.1961 C.ar    
  23 C23           -1.6979    -2.7333     1.2078 C.ar    
  24 F24           -1.6250    -2.0513    -2.3749 F       
  25 Cl25          -4.0153    -0.0611     0.0392 Cl      
  26 H26            1.1328     3.0597     0.0073 H       
  27 H27            4.2908     0.1273    -1.9792 H       
  28 H28            6.4746    -1.0048    -1.9950 H       
  29 H29            7.1669    -2.3788    -0.0753 H       
  30 H30            5.6817    -2.6274     1.8701 H       
  31 H31            3.4992    -1.4934     1.9098 H       
  32 H32            2.2056    -2.3897    -0.0306 H       
  33 H33           -2.0649    -4.6116    -2.1382 H       
  34 H34           -2.2534    -5.8292    -0.0087 H       
  35 H35           -2.0245    -4.6323     2.1275 H       
  36 H36           -1.5924    -2.2107     2.1471 H       
@<TRIPOS>BOND
   1    1    2 2
   2    1    6 1
   3    1    9 1
   4    2    3 1
   5    2    7 1
   6    3    4 2
   7    3   17 1
   8    4    5 1
   9    4   11 1
  10    5    6 am
  11    5   10 2
  12    6   26 1
  13    7    8 2
  14    7   18 1
  15    8    9 1
  16    8   25 1
  17   11   12 ar
  18   11   16 ar
  19   12   13 ar
  20   12   27 1
  21   13   14 ar
  22   13   28 1
  23   14   15 ar
  24   14   29 1
  25   15   16 ar
  26   15   30 1
  27   16   31 1
  28   17   32 1
  29   18   19 ar
  30   18   23 ar
  31   19   20 ar
  32   19   24 1
  33   20   21 ar
  34   20   33 1
  35   21   22 ar
  36   21   34 1
  37   22   23 ar
  38   22   35 1
  39   23   36 1

#	End of record

