#	Name: ASD01708046
#	Creating user name:	WinNT
#	Creation time:	15. 06. 2019 19:22

#	Modifying user name:	WinNT
#	Modification time:	15. 06. 2019 19:22

#	Program:	/corina/corina34_cracker 3.40 0067  02.08.2006

@<TRIPOS>MOLECULE
ASD01708046
  63   66    0    0    0
SMALL
NO_CHARGES


@<TRIPOS>ATOM
   1 C1            -0.0162     1.3436     0.0094 C.2     
   2 N2            -0.0088    -0.0042     0.0040 N.am    
   3 O3             1.0334     1.9572     0.0192 O.2     
   4 C4             1.2468    -0.7628    -0.1211 C.3     
   5 C5            -1.2507    -0.7745     0.1287 C.3     
   6 C6            -1.0500    -1.9084     1.1035 C.ar    
   7 C7             0.1964    -2.2656     1.5706 C.ar    
   8 C8             1.4516    -1.5476     1.1736 C.3     
   9 C9            -2.1781    -2.6004     1.5279 C.ar    
  10 C10           -2.0687    -3.6522     2.4112 C.ar    
  11 C11           -0.8077    -4.0268     2.8838 C.ar    
  12 C12            0.3200    -3.3269     2.4575 C.ar    
  13 Cl13           1.8901    -3.7858     3.0389 Cl      
  14 Cl14          -3.4870    -4.5060     2.9338 Cl      
  15 C15           -0.6712    -5.1548     3.8273 C.2     
  16 N16           -0.7266    -4.9329     5.1555 N.am    
  17 O17           -0.5088    -6.2835     3.4058 O.2     
  18 C18           -0.5913    -6.0519     6.0913 C.3     
  19 C19           -1.9344    -6.7055     6.2905 C.2     
  20 O20           -2.9052    -6.2803     5.7103 O.2     
  21 O21           -2.0524    -7.7601     7.1125 O.3     
  22 C22           -1.2984     2.0746    -0.0027 C.ar    
  23 C23           -0.0721    -5.5338     7.4341 C.3     
  24 C24            1.3438    -4.9823     7.2550 C.3     
  25 C25            1.8630    -4.4642     8.5977 C.3     
  26 C26           -1.4174     3.2843     0.6942 C.ar    
  27 C27           -2.5977     3.9672     0.6891 C.ar    
  28 C28           -3.6927     3.4600    -0.0135 C.ar    
  29 C29           -3.5860     2.2463    -0.7179 C.ar    
  30 C30           -2.3827     1.5608    -0.7121 C.ar    
  31 C31           -5.0692     3.9163    -0.2274 C.2     
  32 C32           -5.6545     2.9910    -1.0033 C.2     
  33 O33           -4.7836     2.0098    -1.2917 O.3     
  34 N34            3.2187    -3.9362     8.4262 N.am    
  35 S35            3.8901    -2.9813     9.6008 S.o2    
  36 O36            5.1716    -2.6437     9.0879 O.2     
  37 O37            2.9104    -1.9806     9.8414 O.2     
  38 C38            4.0482    -4.0761    11.0385 C.3     
  39 H39            1.1793    -1.4516    -0.9632 H       
  40 H40            2.0795    -0.0757    -0.2716 H       
  41 H41           -2.0469    -0.1231     0.4890 H       
  42 H42           -1.5263    -1.1782    -0.8456 H       
  43 H43            2.2485    -2.2758     1.0225 H       
  44 H44            1.7398    -0.8622     1.9706 H       
  45 H45           -3.1517    -2.3102     1.1614 H       
  46 H46           -0.8562    -4.0324     5.4918 H       
  47 H47            0.1111    -6.7808     5.6870 H       
  48 H48           -2.9340    -8.1457     7.2082 H       
  49 H49           -0.7275    -4.7415     7.7958 H       
  50 H50           -0.0555    -6.3498     8.1565 H       
  51 H51            1.9992    -5.7746     6.8932 H       
  52 H52            1.3272    -4.1663     6.5325 H       
  53 H53            1.2075    -3.6720     8.9594 H       
  54 H54            1.8796    -5.2802     9.3201 H       
  55 H55           -0.5710     3.6772     1.2378 H       
  56 H56           -2.6855     4.8989     1.2281 H       
  57 H57           -2.2870     0.6284    -1.2487 H       
  58 H58           -5.5216     4.8165     0.1617 H       
  59 H59           -6.6780     3.0295    -1.3460 H       
  60 H60            3.7230    -4.1459     7.6246 H       
  61 H61            4.6897    -4.9198    10.7840 H       
  62 H62            4.4871    -3.5237    11.8694 H       
  63 H63            3.0629    -4.4428    11.3261 H       
@<TRIPOS>BOND
   1    1    2 am
   2    1    3 2
   3    1   22 1
   4    2    4 1
   5    2    5 1
   6    4    8 1
   7    4   39 1
   8    4   40 1
   9    5    6 1
  10    5   41 1
  11    5   42 1
  12    6    7 ar
  13    6    9 ar
  14    7    8 1
  15    7   12 ar
  16    8   43 1
  17    8   44 1
  18    9   10 ar
  19    9   45 1
  20   10   11 ar
  21   10   14 1
  22   11   12 ar
  23   11   15 1
  24   12   13 1
  25   15   16 am
  26   15   17 2
  27   16   18 1
  28   16   46 1
  29   18   19 1
  30   18   23 1
  31   18   47 1
  32   19   20 2
  33   19   21 1
  34   21   48 1
  35   22   26 ar
  36   22   30 ar
  37   23   24 1
  38   23   49 1
  39   23   50 1
  40   24   25 1
  41   24   51 1
  42   24   52 1
  43   25   34 1
  44   25   53 1
  45   25   54 1
  46   26   27 ar
  47   26   55 1
  48   27   28 ar
  49   27   56 1
  50   28   29 ar
  51   28   31 1
  52   29   30 ar
  53   29   33 1
  54   30   57 1
  55   31   32 2
  56   31   58 1
  57   32   33 1
  58   32   59 1
  59   34   35 am
  60   34   60 1
  61   35   36 2
  62   35   37 2
  63   35   38 1
  64   38   61 1
  65   38   62 1
  66   38   63 1

#	End of record

