#	Name: ASD03080148
#	Creating user name:	WinNT
#	Creation time:	15. 06. 2019 20:26

#	Modifying user name:	WinNT
#	Modification time:	15. 06. 2019 20:26

#	Program:	/corina/corina34_cracker 3.40 0067  02.08.2006

@<TRIPOS>MOLECULE
ASD03080148
  52   53    0    0    0
SMALL
NO_CHARGES


@<TRIPOS>ATOM
   1 C1            -0.0142     1.4386     0.0522 C.3     
   2 O2             0.0036     0.0085     0.0478 O.3     
   3 C3             0.6759    -0.5554    -1.0815 C.3     
   4 C4             2.1216    -0.0527    -1.1113 C.3     
   5 N5             2.1233     1.4172    -1.1395 N.3     
   6 C6             1.4245     1.9615     0.0338 C.3     
   7 C7             3.4933     1.9405    -1.2259 C.3     
   8 C8             3.4482     3.4445    -1.5030 C.3     
   9 C9             4.8750     3.9895    -1.5931 C.3     
  10 C10            4.8299     5.4935    -1.8702 C.3     
  11 C11            6.2352     6.0304    -1.9589 C.2     
  12 N12            6.4423     7.3404    -2.1985 N.am    
  13 C13            7.7403     7.8596    -2.1703 C.ar    
  14 C14            8.0978     8.8818    -3.0414 C.ar    
  15 C15            9.3771     9.3950    -3.0157 C.ar    
  16 C16           10.3123     8.8881    -2.1147 C.ar    
  17 C17            9.9513     7.8632    -1.2416 C.ar    
  18 C18            8.6693     7.3566    -1.2673 C.ar    
  19 C19           11.6896     9.4383    -2.0855 C.ar    
  20 C20           12.0615    10.4624    -2.9539 C.ar    
  21 N21           13.2845    10.9515    -2.9292 N.ar    
  22 C22           14.1981    10.4995    -2.0922 C.ar    
  23 C23           13.9069     9.4847    -1.1986 C.ar    
  24 C24           12.6339     8.9416    -1.1823 C.ar    
  25 O25            7.1799     5.2835    -1.8146 O.2     
  26 H26           -0.5437     1.7987    -0.8299 H       
  27 H27           -0.5191     1.7935     0.9507 H       
  28 H28            0.6701    -1.6426    -1.0029 H       
  29 H29            0.1665    -0.2533    -1.9965 H       
  30 H30            2.6463    -0.4003    -0.2214 H       
  31 H31            2.6214    -0.4343    -2.0016 H       
  32 H32            1.4154     3.0501    -0.0205 H       
  33 H33            1.9381     1.6461     0.9421 H       
  34 H34            4.0113     1.7600    -0.2840 H       
  35 H35            4.0239     1.4378    -2.0345 H       
  36 H36            2.9302     3.6250    -2.4449 H       
  37 H37            2.9176     3.9472    -0.6944 H       
  38 H38            5.3930     3.8090    -0.6512 H       
  39 H39            5.4056     3.4868    -2.4017 H       
  40 H40            4.3118     5.6741    -2.8121 H       
  41 H41            4.2993     5.9962    -1.0616 H       
  42 H42            5.6909     7.9230    -2.3905 H       
  43 H43            7.3729     9.2742    -3.7393 H       
  44 H44            9.6546    10.1888    -3.6933 H       
  45 H45           10.6743     7.4687    -0.5430 H       
  46 H46            8.3892     6.5625    -0.5910 H       
  47 H47           11.3407    10.8587    -3.6538 H       
  48 H48           15.1893    10.9282    -2.1051 H       
  49 H49           14.6634     9.1229    -0.5181 H       
  50 H50           12.3789     8.1487    -0.4949 H       
  51 Cl51          20.1893    15.9515     5.9507 Cl      
  52 H52           20.1893    17.3215     5.9507 H       
@<TRIPOS>BOND
   1    1    2 1
   2    1    6 1
   3    1   26 1
   4    1   27 1
   5    2    3 1
   6    3    4 1
   7    3   28 1
   8    3   29 1
   9    4    5 1
  10    4   30 1
  11    4   31 1
  12    5    6 1
  13    5    7 1
  14    6   32 1
  15    6   33 1
  16    7    8 1
  17    7   34 1
  18    7   35 1
  19    8    9 1
  20    8   36 1
  21    8   37 1
  22    9   10 1
  23    9   38 1
  24    9   39 1
  25   10   11 1
  26   10   40 1
  27   10   41 1
  28   11   12 am
  29   11   25 2
  30   12   13 1
  31   12   42 1
  32   13   14 ar
  33   13   18 ar
  34   14   15 ar
  35   14   43 1
  36   15   16 ar
  37   15   44 1
  38   16   17 ar
  39   16   19 1
  40   17   18 ar
  41   17   45 1
  42   18   46 1
  43   19   20 ar
  44   19   24 ar
  45   20   21 ar
  46   20   47 1
  47   21   22 ar
  48   22   23 ar
  49   22   48 1
  50   23   24 ar
  51   23   49 1
  52   24   50 1
  53   51   52 1

#	End of record

