#	Name: ASD04220056
#	Creating user name:	WinNT
#	Creation time:	15. 06. 2019 20:48

#	Modifying user name:	WinNT
#	Modification time:	15. 06. 2019 20:48

#	Program:	/corina/corina34_cracker 3.40 0067  02.08.2006

@<TRIPOS>MOLECULE
ASD04220056
  33   33    0    0    0
SMALL
NO_CHARGES


@<TRIPOS>ATOM
   1 C1            -0.0173     1.4248     0.0099 C.3     
   2 O2             0.0021    -0.0041     0.0020 O.3     
   3 C3             1.4189     1.9549    -0.0010 C.3     
   4 O4             2.1280     1.4359     1.1258 O.3     
   5 C5             2.1106     1.5065    -1.2920 C.3     
   6 O6             2.1863     0.0799    -1.3231 O.3     
   7 C7             1.2986     2.0029    -2.4923 C.3     
   8 C8            -0.1329     1.4709    -2.3852 C.3     
   9 O9            -0.7073     1.8984    -1.1485 O.3     
  10 C10           -0.9665     2.0114    -3.5487 C.3     
  11 O11           -2.2687     1.4240    -3.5151 O.3     
  12 S12           -3.1884     1.8926    -4.6336 S.o2    
  13 C13            2.0418     2.2543     2.2941 C.3     
  14 C14            3.3160    -0.4268    -2.0366 C.3     
  15 O15           -4.4782     1.3762    -4.3354 O.2     
  16 O16           -2.9282     3.2780    -4.8131 O.2     
  17 O17           -2.7332     1.2008    -5.9107 O.3     
  18 H18           -0.5278     1.7765     0.9064 H       
  19 H19           -0.8759    -0.4094     0.0082 H       
  20 H20            1.4056     3.0438     0.0470 H       
  21 H21            3.1159     1.9259    -1.3317 H       
  22 H22            1.2829     3.0928    -2.4958 H       
  23 H23            1.7535     1.6413    -3.4144 H       
  24 H24           -0.1196     0.3816    -2.4225 H       
  25 H25           -1.0540     3.0943    -3.4607 H       
  26 H26           -0.4795     1.7617    -4.4914 H       
  27 H27            2.4562     3.2392     2.0791 H       
  28 H28            0.9978     2.3560     2.5902 H       
  29 H29            2.6058     1.7917     3.1041 H       
  30 H30            3.2762    -0.0842    -3.0706 H       
  31 H31            4.2324    -0.0663    -1.5694 H       
  32 H32            3.3011    -1.5165    -2.0141 H       
  33 H33           -3.2563     1.4313    -6.6907 H       
@<TRIPOS>BOND
   1    1    2 1
   2    1    3 1
   3    1    9 1
   4    1   18 1
   5    2   19 1
   6    3    4 1
   7    3    5 1
   8    3   20 1
   9    4   13 1
  10    5    6 1
  11    5    7 1
  12    5   21 1
  13    6   14 1
  14    7    8 1
  15    7   22 1
  16    7   23 1
  17    8    9 1
  18    8   10 1
  19    8   24 1
  20   10   11 1
  21   10   25 1
  22   10   26 1
  23   11   12 1
  24   12   15 2
  25   12   16 2
  26   12   17 1
  27   13   27 1
  28   13   28 1
  29   13   29 1
  30   14   30 1
  31   14   31 1
  32   14   32 1
  33   17   33 1

#	End of record

