#	Name: ASD03740125
#	Creating user name:	WinNT
#	Creation time:	15. 06. 2019 20:46

#	Modifying user name:	WinNT
#	Modification time:	15. 06. 2019 20:46

#	Program:	/corina/corina34_cracker 3.40 0067  02.08.2006

@<TRIPOS>MOLECULE
ASD03740125
  55   57    0    0    0
SMALL
NO_CHARGES


@<TRIPOS>ATOM
   1 Cl1            0.0000     0.0000     0.0000 Cl      
   2 H2             0.0000     1.3700     0.0000 H       
   3 C3            12.5482    11.7760    10.5405 C.ar    
   4 C4            12.7822    10.4092    10.6307 C.ar    
   5 C5            11.7520     9.5162    10.5475 C.ar    
   6 C6            10.4488     9.9756    10.3706 C.ar    
   7 C7            10.2103    11.3602    10.2795 C.ar    
   8 C8            11.2811    12.2548    10.3723 C.ar    
   9 N9             9.2324     9.3556    10.2528 N.pl3   
  10 N10            8.2369    10.3245    10.0898 N.2     
  11 C11            8.7672    11.5171    10.0995 C.2     
  12 C12            9.0100     7.9081    10.2910 C.3     
  13 C13            8.7651     7.4749    11.7135 C.ar    
  14 C14            7.4781     7.4527    12.2174 C.ar    
  15 C15            7.2534     7.0553    13.5222 C.ar    
  16 C16            8.3158     6.6798    14.3230 C.ar    
  17 C17            9.6027     6.7011    13.8188 C.ar    
  18 C18            9.8269     7.0943    12.5126 C.ar    
  19 O19            8.0987    12.6932     9.9667 O.3     
  20 C20            6.6814    12.6186     9.8002 C.3     
  21 C21            6.1084    14.0310     9.6683 C.3     
  22 N22            6.6595    14.6729     8.4673 N.3     
  23 C23            6.0604    15.9969     8.2563 C.3     
  24 C24            6.4859    13.8172     7.2866 C.3     
  25 C25            7.1973    14.4491     6.0880 C.3     
  26 C26            6.6090    15.8382     5.8257 C.3     
  27 C27            6.7591    16.6938     7.0866 C.3     
  28 C28           13.7035    12.7390    10.6355 C.3     
  29 H29           13.7910    10.0487    10.7679 H       
  30 H30           11.9474     8.4564    10.6184 H       
  31 H31           11.1074    13.3185    10.3035 H       
  32 H32            8.1426     7.6575     9.6804 H       
  33 H33            9.8892     7.3950     9.9012 H       
  34 H34            6.6481     7.7461    11.5918 H       
  35 H35            6.2480     7.0387    13.9161 H       
  36 H36            8.1404     6.3700    15.3426 H       
  37 H37           10.4328     6.4079    14.4445 H       
  38 H38           10.8324     7.1109    12.1187 H       
  39 H39            6.4509    12.0475     8.9009 H       
  40 H40            6.2392    12.1265    10.6664 H       
  41 H41            5.0229    13.9765     9.5854 H       
  42 H42            6.3767    14.6156    10.5482 H       
  43 H43            5.0000    15.8839     8.0307 H       
  44 H44            6.1777    16.5966     9.1588 H       
  45 H45            6.9122    12.8338     7.4849 H       
  46 H46            5.4235    13.7144     7.0656 H       
  47 H47            8.2620    14.5395     6.3029 H       
  48 H48            7.0551    13.8216     5.2081 H       
  49 H49            7.1421    16.3095     5.0000 H       
  50 H50            5.5529    15.7446     5.5725 H       
  51 H51            6.3038    17.6701     6.9202 H       
  52 H52            7.8170    16.8195     7.3172 H       
  53 H53           14.1045    12.9248     9.6391 H       
  54 H54           13.3593    13.6777    11.0696 H       
  55 H55           14.4824    12.3109    11.2666 H       
@<TRIPOS>BOND
   1    1    2 1
   2    3    4 ar
   3    3   28 1
   4    3    8 ar
   5    4    5 ar
   6    4   29 1
   7    5    6 ar
   8    5   30 1
   9    6    7 ar
  10    6    9 1
  11    7    8 ar
  12    7   11 1
  13    8   31 1
  14    9   10 1
  15    9   12 1
  16   10   11 2
  17   11   19 1
  18   12   13 1
  19   12   32 1
  20   12   33 1
  21   13   14 ar
  22   13   18 ar
  23   14   15 ar
  24   14   34 1
  25   15   16 ar
  26   15   35 1
  27   16   17 ar
  28   16   36 1
  29   17   18 ar
  30   17   37 1
  31   18   38 1
  32   19   20 1
  33   20   21 1
  34   20   39 1
  35   20   40 1
  36   21   22 1
  37   21   41 1
  38   21   42 1
  39   22   23 1
  40   22   24 1
  41   23   27 1
  42   23   43 1
  43   23   44 1
  44   24   25 1
  45   24   45 1
  46   24   46 1
  47   25   26 1
  48   25   47 1
  49   25   48 1
  50   26   27 1
  51   26   49 1
  52   26   50 1
  53   27   51 1
  54   27   52 1
  55   28   53 1
  56   28   54 1
  57   28   55 1

#	End of record

