#	Name: ASD03090469
#	Creating user name:	WinNT
#	Creation time:	15. 06. 2019 20:28

#	Modifying user name:	WinNT
#	Modification time:	15. 06. 2019 20:28

#	Program:	/corina/corina34_cracker 3.40 0067  02.08.2006

@<TRIPOS>MOLECULE
ASD03090469
  43   45    0    0    0
SMALL
NO_CHARGES


@<TRIPOS>ATOM
   1 C1            -0.3846     0.7613     0.2707 C.2     
   2 C2            -0.0054    -0.6946     0.1826 C.3     
   3 O3             0.4743     1.6159     0.2180 O.2     
   4 N4            -1.6788     1.1138     0.4024 N.am    
   5 C5             1.4893    -0.8163     0.0341 C.2     
   6 C6             2.2734    -1.0284     1.1040 C.2     
   7 C7             3.7277    -1.1434     0.9248 C.2     
   8 C8             4.2850    -0.7760    -0.2501 C.2     
   9 N9             3.4468    -0.2976    -1.2574 N.pl3   
  10 N10            2.0979    -0.7168    -1.2258 N.pl3   
  11 O11            5.6239    -0.8695    -0.4447 O.3     
  12 C12            6.1246    -0.4584    -1.7184 C.3     
  13 C13            7.5475     0.0802    -1.5574 C.3     
  14 C14            6.1370    -1.6549    -2.6719 C.3     
  15 N15           -0.8086    -3.5503    -4.0395 N.pl3   
  16 C16           -1.2648    -3.3482    -5.3154 C.2     
  17 C17           -0.8005    -2.1810    -5.7873 C.2     
  18 C18            0.0201    -1.5862    -4.7286 C.ar    
  19 C19            0.7538    -0.4023    -4.6216 C.ar    
  20 C20            1.4329    -0.1249    -3.4705 C.ar    
  21 C21            1.3984    -1.0155    -2.3972 C.ar    
  22 C22            0.6762    -2.1937    -2.4849 C.ar    
  23 C23           -0.0199    -2.4902    -3.6515 C.ar    
  24 H24           -0.3234    -1.2084     1.0898 H       
  25 H25           -0.4943    -1.1458    -0.6809 H       
  26 H26           -2.3661     0.4304     0.4405 H       
  27 H27           -1.9229     2.0508     0.4591 H       
  28 H28            1.8383    -1.1135     2.0888 H       
  29 H29            4.3465    -1.5184     1.7265 H       
  30 H30            3.7772     0.2947    -1.9509 H       
  31 H31            5.4839     0.3239    -2.1254 H       
  32 H32            8.1882    -0.7021    -1.1504 H       
  33 H33            7.9295     0.3938    -2.5290 H       
  34 H34            7.5387     0.9326    -0.8782 H       
  35 H35            6.7777    -2.4372    -2.2649 H       
  36 H36            5.1232    -2.0386    -2.7866 H       
  37 H37            6.5189    -1.3414    -3.6434 H       
  38 H38           -1.0139    -4.3228    -3.4899 H       
  39 H39           -1.9032    -4.0276    -5.8606 H       
  40 H40           -0.9943    -1.7599    -6.7628 H       
  41 H41            0.7849     0.2916    -5.4486 H       
  42 H42            1.9997     0.7908    -3.3896 H       
  43 H43            0.6540    -2.8795    -1.6509 H       
@<TRIPOS>BOND
   1    1    2 1
   2    1    3 2
   3    1    4 am
   4    2    5 1
   5    2   24 1
   6    2   25 1
   7    4   26 1
   8    4   27 1
   9    5    6 2
  10    5   10 1
  11    6    7 1
  12    6   28 1
  13    7    8 2
  14    7   29 1
  15    8    9 1
  16    8   11 1
  17    9   10 1
  18    9   30 1
  19   10   21 1
  20   11   12 1
  21   12   13 1
  22   12   14 1
  23   12   31 1
  24   13   32 1
  25   13   33 1
  26   13   34 1
  27   14   35 1
  28   14   36 1
  29   14   37 1
  30   15   16 1
  31   15   23 1
  32   15   38 1
  33   16   17 2
  34   16   39 1
  35   17   18 1
  36   17   40 1
  37   18   19 ar
  38   18   23 ar
  39   19   20 ar
  40   19   41 1
  41   20   21 ar
  42   20   42 1
  43   21   22 ar
  44   22   23 ar
  45   22   43 1

#	End of record

