#	Name: ASD03330674
#	Creating user name:	WinNT
#	Creation time:	15. 06. 2019 20:37

#	Modifying user name:	WinNT
#	Modification time:	15. 06. 2019 20:37

#	Program:	/corina/corina34_cracker 3.40 0067  02.08.2006

@<TRIPOS>MOLECULE
ASD03330674
  62   64    0    0    0
SMALL
NO_CHARGES


@<TRIPOS>ATOM
   1 C1            -0.8851     2.3099     0.1947 C.2     
   2 N2            -1.2464     1.0168     0.3417 N.pl3   
   3 C3             0.4564     2.3913     0.4135 C.2     
   4 N4             0.9098     1.1389     0.6367 N.2     
   5 C5            -0.0998     0.3047     0.5778 C.2     
   6 C6            -0.0152    -1.1635     0.7401 C.ar    
   7 C7             1.2664     3.6223     0.4071 C.2     
   8 O8             0.7385     4.6965     0.1914 O.2     
   9 C9             3.3976     4.7815     0.6340 C.3     
  10 N10            2.5923     3.5577     0.6404 N.am    
  11 C11            3.8146     5.1102    -0.8009 C.3     
  12 C12            2.5697     5.1996    -1.6859 C.3     
  13 C13            4.5534     6.4498    -0.8231 C.3     
  14 C14            4.7375     4.0099    -1.3285 C.3     
  15 C15            4.6277     4.5778     1.4805 C.2     
  16 N16            5.3967     5.6324     1.8164 N.am    
  17 O17            4.9256     3.4649     1.8593 O.2     
  18 C18            6.6445     5.4233     2.5550 C.3     
  19 C19           -2.5990     0.4510     0.3078 C.3     
  20 C20           -3.3553     0.9191    -0.9377 C.3     
  21 C21           -4.0040     2.2821    -0.6675 C.3     
  22 N22           -3.1741     3.0822     0.2202 N.am    
  23 C23           -1.8113     3.4283    -0.1999 C.3     
  24 C24           -3.6499     3.4995     1.4101 C.2     
  25 C25            1.1384    -1.8457     0.3525 C.ar    
  26 C26           -1.0864    -1.8707     1.2865 C.ar    
  27 C27           -1.0013    -3.2398     1.4352 C.ar    
  28 C28            0.1434    -3.9112     1.0441 C.ar    
  29 C29            1.2111    -3.2150     0.5064 C.ar    
  30 C30           -2.7489     4.2409     2.3638 C.3     
  31 O31           -4.8031     3.2784     1.7134 O.2     
  32 H32            2.8100     5.6052     1.0394 H       
  33 H33            3.0133     2.7010     0.8125 H       
  34 H34            1.9122     5.9835    -1.3100 H       
  35 H35            2.8668     5.4337    -2.7082 H       
  36 H36            2.0434     4.2452    -1.6701 H       
  37 H37            5.4962     6.3537    -0.2846 H       
  38 H38            4.7524     6.7379    -1.8554 H       
  39 H39            3.9380     7.2121    -0.3453 H       
  40 H40            4.2112     3.0555    -1.3126 H       
  41 H41            5.0346     4.2441    -2.3508 H       
  42 H42            5.6244     3.9462    -0.6980 H       
  43 H43            5.1240     6.5298     1.5692 H       
  44 H44            6.4262     4.9422     3.5084 H       
  45 H45            7.3101     4.7874     1.9712 H       
  46 H46            7.1258     6.3846     2.7348 H       
  47 H47           -2.5322    -0.6369     0.2988 H       
  48 H48           -3.1426     0.7685     1.1976 H       
  49 H49           -2.6599     1.0076    -1.7723 H       
  50 H50           -4.1287     0.1924    -1.1867 H       
  51 H51           -4.1332     2.8113    -1.6116 H       
  52 H52           -4.9797     2.1299    -0.2061 H       
  53 H53           -1.5006     4.3506     0.2910 H       
  54 H54           -1.7847     3.5605    -1.2815 H       
  55 H55            1.9726    -1.3033    -0.0674 H       
  56 H56           -1.9802    -1.3477     1.5929 H       
  57 H57           -1.8299    -3.7885     1.8581 H       
  58 H58            0.2054    -4.9828     1.1632 H       
  59 H59            2.1018    -3.7448     0.2026 H       
  60 H60           -1.7775     4.4010     1.8959 H       
  61 H61           -3.1958     5.2037     2.6117 H       
  62 H62           -2.6216     3.6544     3.2737 H       
@<TRIPOS>BOND
   1    1    2 1
   2    1    3 2
   3    1   23 1
   4    2   19 1
   5    2    5 1
   6    3    4 1
   7    3    7 1
   8    4    5 2
   9    5    6 1
  10    6   25 ar
  11    6   26 ar
  12    7    8 2
  13    7   10 am
  14    9   10 1
  15    9   11 1
  16    9   15 1
  17    9   32 1
  18   10   33 1
  19   11   12 1
  20   11   13 1
  21   11   14 1
  22   12   34 1
  23   12   35 1
  24   12   36 1
  25   13   37 1
  26   13   38 1
  27   13   39 1
  28   14   40 1
  29   14   41 1
  30   14   42 1
  31   15   16 am
  32   15   17 2
  33   16   18 1
  34   16   43 1
  35   18   44 1
  36   18   45 1
  37   18   46 1
  38   19   20 1
  39   19   47 1
  40   19   48 1
  41   20   21 1
  42   20   49 1
  43   20   50 1
  44   21   22 1
  45   21   51 1
  46   21   52 1
  47   22   23 1
  48   22   24 am
  49   23   53 1
  50   23   54 1
  51   24   30 1
  52   24   31 2
  53   25   29 ar
  54   25   55 1
  55   26   27 ar
  56   26   56 1
  57   27   28 ar
  58   27   57 1
  59   28   29 ar
  60   28   58 1
  61   29   59 1
  62   30   60 1
  63   30   61 1
  64   30   62 1

#	End of record

