#	Name: ASD01813582
#	Creating user name:	WinNT
#	Creation time:	15. 06. 2019 19:30

#	Modifying user name:	WinNT
#	Modification time:	15. 06. 2019 19:30

#	Program:	/corina/corina34_cracker 3.40 0067  02.08.2006

@<TRIPOS>MOLECULE
ASD01813582
  59   63    0    0    0
SMALL
NO_CHARGES


@<TRIPOS>ATOM
   1 C1            -0.2695    -0.0912     1.1331 C.ar    
   2 C2             0.0488    -1.3848     0.7487 C.ar    
   3 C3             1.3447    -1.7233     0.4164 C.ar    
   4 C4             2.3507    -0.7599     0.4646 C.ar    
   5 C5             2.0265     0.5509     0.8539 C.ar    
   6 C6             0.7104     0.8796     1.1882 C.ar    
   7 N7             3.6496    -1.0865     0.1357 N.pl3   
   8 C8             4.6509    -0.1981     0.1671 C.2     
   9 C9             4.4549     1.1181     0.5338 C.2     
  10 C10            3.0995     1.5600     0.9007 C.2     
  11 O11            2.8745     2.7112     1.2311 O.2     
  12 C12            5.5805     2.0627     0.5567 C.2     
  13 O13            5.3764     3.3457     0.9166 O.3     
  14 O14            6.6955     1.6872     0.2510 O.2     
  15 C15            3.9465    -2.4641    -0.2646 C.3     
  16 C16            3.6654    -2.6314    -1.7357 C.ar    
  17 N17            2.4422    -2.9128    -2.1356 N.ar    
  18 C18            2.1489    -3.0683    -3.4202 C.ar    
  19 C19            3.1373    -2.9374    -4.3929 C.ar    
  20 C20            4.4318    -2.6420    -4.0010 C.ar    
  21 C21            4.6939    -2.4819    -2.6480 C.ar    
  22 F22            1.6383    -2.9885     0.0447 F       
  23 F23            0.3984     2.1398     1.5621 F       
  24 C24            0.7569    -3.3847    -3.8238 C.ar    
  25 C25           -0.2943    -2.5707    -3.4067 C.ar    
  26 C26           -1.5875    -2.8699    -3.7853 C.ar    
  27 C27           -1.8409    -3.9754    -4.5767 C.ar    
  28 C28           -0.8011    -4.7871    -4.9937 C.ar    
  29 C29            0.4963    -4.4940    -4.6264 C.ar    
  30 C30           -0.0198    -1.3663    -2.5435 C.3     
  31 N31            0.5086    -0.2774    -3.3760 N.3     
  32 C32            0.7014     0.9457    -2.5835 C.3     
  33 C33            1.3076     2.0339    -3.4736 C.3     
  34 O34            0.4559     2.2487    -4.6023 O.3     
  35 C35            0.2470     1.0781    -5.3969 C.3     
  36 C36           -0.3700    -0.0197    -4.5263 C.3     
  37 H37           -1.2892     0.1590     1.3863 H       
  38 H38           -0.7261    -2.1360     0.7093 H       
  39 H39            5.6450    -0.5223    -0.1032 H       
  40 H40            6.1472     3.9296     0.9165 H       
  41 H41            4.9965    -2.6812    -0.0683 H       
  42 H42            3.3208    -3.1510     0.3053 H       
  43 H43            2.8973    -3.0650    -5.4381 H       
  44 H44            5.2193    -2.5349    -4.7323 H       
  45 H45            5.6933    -2.2507    -2.3099 H       
  46 H46           -2.4031    -2.2397    -3.4626 H       
  47 H47           -2.8544    -4.2062    -4.8699 H       
  48 H48           -1.0048    -5.6494    -5.6113 H       
  49 H49            1.3074    -5.1283    -4.9525 H       
  50 H50           -0.9449    -1.0428    -2.0664 H       
  51 H51            0.7118    -1.6266    -1.7786 H       
  52 H52           -0.2600     1.2848    -2.1977 H       
  53 H53            1.3752     0.7383    -1.7522 H       
  54 H54            1.3994     2.9596    -2.9055 H       
  55 H55            2.2927     1.7171    -3.8161 H       
  56 H56           -0.4283     1.3126    -6.2198 H       
  57 H57            1.2012     0.7335    -5.7953 H       
  58 H58           -0.4782    -0.9318    -5.1131 H       
  59 H59           -1.3485     0.3039    -4.1715 H       
@<TRIPOS>BOND
   1    1    2 ar
   2    1    6 ar
   3    1   37 1
   4    2    3 ar
   5    2   38 1
   6    3    4 ar
   7    3   22 1
   8    4    5 ar
   9    4    7 1
  10    5    6 ar
  11    5   10 1
  12    6   23 1
  13    7    8 1
  14    7   15 1
  15    8    9 2
  16    8   39 1
  17    9   10 1
  18    9   12 1
  19   10   11 2
  20   12   13 1
  21   12   14 2
  22   13   40 1
  23   15   16 1
  24   15   41 1
  25   15   42 1
  26   16   17 ar
  27   16   21 ar
  28   17   18 ar
  29   18   19 ar
  30   18   24 1
  31   19   20 ar
  32   19   43 1
  33   20   21 ar
  34   20   44 1
  35   21   45 1
  36   24   25 ar
  37   24   29 ar
  38   25   26 ar
  39   25   30 1
  40   26   27 ar
  41   26   46 1
  42   27   28 ar
  43   27   47 1
  44   28   29 ar
  45   28   48 1
  46   29   49 1
  47   30   31 1
  48   30   50 1
  49   30   51 1
  50   31   32 1
  51   31   36 1
  52   32   33 1
  53   32   52 1
  54   32   53 1
  55   33   34 1
  56   33   54 1
  57   33   55 1
  58   34   35 1
  59   35   36 1
  60   35   56 1
  61   35   57 1
  62   36   58 1
  63   36   59 1

#	End of record

