#	Name: ASD08830031
#	Creating user name:	WinNT
#	Creation time:	15. 06. 2019 21:19

#	Modifying user name:	WinNT
#	Modification time:	15. 06. 2019 21:19

#	Program:	/corina/corina34_cracker 3.40 0067  02.08.2006

@<TRIPOS>MOLECULE
ASD08830031
  43   45    0    0    0
SMALL
NO_CHARGES


@<TRIPOS>ATOM
   1 C1            -0.0126     1.2470    -0.9501 C.ar    
   2 C2             0.0202    -0.1553    -0.7377 C.ar    
   3 C3             1.1884     1.9814    -0.9471 C.ar    
   4 C4             2.3708     1.3495    -0.7423 C.ar    
   5 C5             2.4182    -0.0428    -0.5306 C.ar    
   6 C6             1.2509    -0.7939    -0.5275 C.ar    
   7 C7             3.7131    -0.7046    -0.3118 C.2     
   8 C8             4.9836     0.1059    -0.3147 C.3     
   9 C9             6.1781    -0.8173    -0.0663 C.3     
  10 N10            7.4246    -0.0509    -0.1958 N.3     
  11 O11            3.7586    -1.9026    -0.1292 O.2     
  12 C12            7.6378     0.7552     0.9305 C.3     
  13 C13           -1.2471     1.8800    -1.1663 C.ar    
  14 C14           -1.1841    -0.8819    -0.7421 C.ar    
  15 C15           -2.3621    -0.2322    -0.9496 C.ar    
  16 C16           -2.3927     1.1432    -1.1694 C.ar    
  17 C17            8.8221     1.7238     0.7047 C.3     
  18 C18           10.1171     0.9559     0.8005 C.3     
  19 C19           10.5885     0.4033    -0.5571 C.3     
  20 N20            9.4804    -0.1626    -1.3525 N.3     
  21 C21            8.5517    -0.9316    -0.5526 C.3     
  22 H22            1.1681     3.0491    -1.1084 H       
  23 H23            3.2875     1.9205    -0.7420 H       
  24 H24            1.2901    -1.8608    -0.3649 H       
  25 H25            5.0989     0.5973    -1.2807 H       
  26 H26            4.9362     0.8585     0.4724 H       
  27 H27            6.1114    -1.2356     0.9381 H       
  28 H28            6.1709    -1.6255    -0.7976 H       
  29 H29            6.7362     1.3335     1.1324 H       
  30 H30            7.8540     0.1199     1.7894 H       
  31 H31           -1.2882     2.9468    -1.3292 H       
  32 H32           -1.1741    -1.9500    -0.5821 H       
  33 H33           -3.2855    -0.7923    -0.9529 H       
  34 H34           -3.3406     1.6349    -1.3311 H       
  35 H35            8.7393     2.1761    -0.2836 H       
  36 H36            8.8045     2.5041     1.4656 H       
  37 H37           10.8882     1.6159     1.1978 H       
  38 H38            9.9813     0.1231     1.4905 H       
  39 H39           11.0533     1.2100    -1.1240 H       
  40 H40           11.3308    -0.3755    -0.3824 H       
  41 H41            9.0009     0.5592    -1.8694 H       
  42 H42            9.0470    -1.2820     0.3529 H       
  43 H43            8.1870    -1.7829    -1.1274 H       
@<TRIPOS>BOND
   1    1    2 ar
   2    1    3 ar
   3    1   13 ar
   4    2   14 ar
   5    2    6 ar
   6    3    4 ar
   7    3   22 1
   8    4    5 ar
   9    4   23 1
  10    5    6 ar
  11    5    7 1
  12    6   24 1
  13    7    8 1
  14    7   11 2
  15    8    9 1
  16    8   25 1
  17    8   26 1
  18    9   10 1
  19    9   27 1
  20    9   28 1
  21   10   12 1
  22   10   21 1
  23   12   17 1
  24   12   29 1
  25   12   30 1
  26   13   16 ar
  27   13   31 1
  28   14   15 ar
  29   14   32 1
  30   15   16 ar
  31   15   33 1
  32   16   34 1
  33   17   18 1
  34   17   35 1
  35   17   36 1
  36   18   19 1
  37   18   37 1
  38   18   38 1
  39   19   20 1
  40   19   39 1
  41   19   40 1
  42   20   21 1
  43   20   41 1
  44   21   42 1
  45   21   43 1

#	End of record

