#	Name: ASD06170141
#	Creating user name:	WinNT
#	Creation time:	15. 06. 2019 21:05

#	Modifying user name:	WinNT
#	Modification time:	15. 06. 2019 21:05

#	Program:	/corina/corina34_cracker 3.40 0067  02.08.2006

@<TRIPOS>MOLECULE
ASD06170141
  70   74    0    0    0
SMALL
NO_CHARGES


@<TRIPOS>ATOM
   1 C1            -1.2784    -1.4154    -3.0245 C.ar    
   2 C2            -0.4519    -1.0897    -1.9456 C.ar    
   3 C3             0.7677    -1.7700    -1.7771 C.ar    
   4 C4             1.1114    -2.7490    -2.6952 C.ar    
   5 C5             0.2461    -3.0238    -3.7436 C.ar    
   6 N6            -0.8847    -2.3803    -3.8833 N.ar    
   7 C7            -2.4567    -0.6525    -3.0483 C.2     
   8 C8            -2.5891     0.2375    -2.0585 C.2     
   9 S9            -1.1962     0.1870    -0.9918 S.3     
  10 C10           -3.7405     1.1386    -1.8907 C.2     
  11 O11           -4.6600     1.1050    -2.6861 O.2     
  12 N12           -3.7760     2.0009    -0.8555 N.am    
  13 C13           -4.9222     2.8979    -0.6884 C.3     
  14 O14            1.5898    -1.4736    -0.7386 O.3     
  15 C15            2.7159    -2.2199    -0.5825 C.ar    
  16 C16            3.8745    -1.8819    -1.2718 C.ar    
  17 C17            5.0189    -2.6404    -1.1125 C.ar    
  18 C18            5.0100    -3.7397    -0.2638 C.ar    
  19 C19            3.8518    -4.0760     0.4240 C.ar    
  20 C20            2.7097    -3.3144     0.2685 C.ar    
  21 C21            7.3803    -3.9200    -0.1454 C.2     
  22 O22            7.4653    -2.7097    -0.2392 O.2     
  23 N23            6.1688    -4.5091    -0.1021 N.am    
  24 N24           10.7256    -5.3459    -0.0287 N.pl3   
  25 N25            9.9779    -6.5238     0.0610 N.am    
  26 C26            8.6674    -6.2039     0.0338 C.2     
  27 C27            8.5971    -4.7384    -0.0795 C.2     
  28 C28            9.9011    -4.2844    -0.1122 C.2     
  29 C29           10.5007    -7.8172     0.1612 C.ar    
  30 C30           11.4708    -8.1039     1.1129 C.ar    
  31 C31           11.9846    -9.3822     1.2095 C.ar    
  32 C32           11.5344   -10.3761     0.3600 C.ar    
  33 C33           10.5690   -10.0938    -0.5890 C.ar    
  34 C34           10.0468    -8.8189    -0.6870 C.ar    
  35 O35            7.7282    -6.9755     0.0914 O.2     
  36 C36           10.3292    -2.8436    -0.2219 C.3     
  37 C37           12.1889    -5.2762    -0.0258 C.3     
  38 C38           12.7011    -5.2515    -1.4673 C.3     
  39 C39           14.2302    -5.3045    -1.4661 C.3     
  40 C40           12.1495    -6.4606    -2.2253 C.3     
  41 O41           12.2667    -4.0496    -2.1066 O.3     
  42 F42            3.8819    -0.8126    -2.0974 F       
  43 H43            2.0406    -3.2905    -2.5960 H       
  44 H44            0.5116    -3.7862    -4.4610 H       
  45 H45           -3.2067    -0.7758    -3.8156 H       
  46 H46           -3.0427     2.0277    -0.2212 H       
  47 H47           -5.0147     3.5368    -1.5667 H       
  48 H48           -5.8312     2.3079    -0.5710 H       
  49 H49           -4.7736     3.5164     0.1967 H       
  50 H50            5.9195    -2.3785    -1.6480 H       
  51 H51            3.8449    -4.9308     1.0840 H       
  52 H52            1.8103    -3.5742     0.8070 H       
  53 H53            6.0996    -5.4660     0.0411 H       
  54 H54           11.8231    -7.3280     1.7764 H       
  55 H55           12.7392    -9.6057     1.9491 H       
  56 H56           11.9378   -11.3749     0.4376 H       
  57 H57           10.2196   -10.8721    -1.2512 H       
  58 H58            9.2896    -8.6002    -1.4254 H       
  59 H59           10.4348    -2.5750    -1.2730 H       
  60 H60            9.5779    -2.2050     0.2425 H       
  61 H61           11.2845    -2.7088     0.2853 H       
  62 H62           12.5085    -4.3701     0.4890 H       
  63 H63           12.5931    -6.1480     0.4886 H       
  64 H64           14.5616    -6.2213    -0.9784 H       
  65 H65           14.5951    -5.2869    -2.4931 H       
  66 H66           14.6232    -4.4431    -0.9261 H       
  67 H67           11.0601    -6.4228    -2.2262 H       
  68 H68           12.5144    -6.4430    -3.2523 H       
  69 H69           12.4808    -7.3773    -1.7376 H       
  70 H70           12.5799    -3.2410    -1.6786 H       
@<TRIPOS>BOND
   1    1    2 ar
   2    1    6 ar
   3    1    7 1
   4    2    3 ar
   5    2    9 1
   6    3    4 ar
   7    3   14 1
   8    4    5 ar
   9    4   43 1
  10    5    6 ar
  11    5   44 1
  12    7    8 2
  13    7   45 1
  14    8    9 1
  15    8   10 1
  16   10   11 2
  17   10   12 am
  18   12   13 1
  19   12   46 1
  20   13   47 1
  21   13   48 1
  22   13   49 1
  23   14   15 1
  24   15   16 ar
  25   15   20 ar
  26   16   17 ar
  27   16   42 1
  28   17   18 ar
  29   17   50 1
  30   18   19 ar
  31   18   23 1
  32   19   20 ar
  33   19   51 1
  34   20   52 1
  35   21   22 2
  36   21   23 am
  37   21   27 1
  38   23   53 1
  39   24   25 1
  40   24   28 1
  41   24   37 1
  42   25   26 am
  43   25   29 1
  44   26   27 1
  45   26   35 2
  46   27   28 2
  47   28   36 1
  48   29   30 ar
  49   29   34 ar
  50   30   31 ar
  51   30   54 1
  52   31   32 ar
  53   31   55 1
  54   32   33 ar
  55   32   56 1
  56   33   34 ar
  57   33   57 1
  58   34   58 1
  59   36   59 1
  60   36   60 1
  61   36   61 1
  62   37   38 1
  63   37   62 1
  64   37   63 1
  65   38   39 1
  66   38   40 1
  67   38   41 1
  68   39   64 1
  69   39   65 1
  70   39   66 1
  71   40   67 1
  72   40   68 1
  73   40   69 1
  74   41   70 1

#	End of record

