#	Name: ASD02030652
#	Creating user name:	WinNT
#	Creation time:	15. 06. 2019 20:15

#	Modifying user name:	WinNT
#	Modification time:	15. 06. 2019 20:15

#	Program:	/corina/corina34_cracker 3.40 0067  02.08.2006

@<TRIPOS>MOLECULE
ASD02030652
  70   73    0    0    0
SMALL
NO_CHARGES


@<TRIPOS>ATOM
   1 C1             1.1083     2.7373     0.5541 C.ar    
   2 C2             0.6498     1.4456     0.7020 C.ar    
   3 C3             1.5451     0.3875     0.6368 C.ar    
   4 C4             2.8903     0.6389     0.4297 C.ar    
   5 C5             3.3510     1.9415     0.2873 C.ar    
   6 C6             2.4575     2.9881     0.3408 C.ar    
   7 C7             2.8853     4.4232     0.1608 C.3     
   8 C8             4.8312     2.1402     0.0934 C.3     
   9 C9             5.1203     3.5076    -0.5238 C.3     
  10 N10            4.3479     4.5142     0.2214 N.am    
  11 C11            2.3993     4.9327    -1.1976 C.3     
  12 O12            2.8712     4.0634    -2.2289 O.3     
  13 C13            2.5254     4.3764    -3.5063 C.ar    
  14 C14            4.9608     5.4816     0.9321 C.2     
  15 S15            6.6679     5.4979     1.0611 S.2     
  16 C16            4.1602     6.5271     1.5993 C.ar    
  17 C17            1.8211     5.0132    -6.1066 C.ar    
  18 C18            1.4019     5.8180    -5.0577 C.ar    
  19 C19            1.7531     5.5001    -3.7601 C.ar    
  20 C20            2.9498     3.5750    -4.5558 C.ar    
  21 C21            2.5986     3.8929    -5.8533 C.ar    
  22 C22            4.5303     6.9952     2.8617 C.ar    
  23 C23            3.0323     7.0567     0.9683 C.ar    
  24 C24            2.2891     8.0335     1.5973 C.ar    
  25 C25            2.6587     8.4891     2.8507 C.ar    
  26 C26            3.7777     7.9728     3.4792 C.ar    
  27 O27            1.4753     5.3262    -7.3840 O.3     
  28 C28            0.6479     6.4765    -7.5688 C.3     
  29 O29            1.1032    -0.8901     0.7761 O.3     
  30 C30           -0.2741    -1.0669     1.1136 C.3     
  31 C31           -1.1193    -1.0386    -0.1615 C.3     
  32 C32           -0.4580    -2.4129     1.8175 C.3     
  33 C33            1.5180     7.7349    -7.5752 C.3     
  34 C34            4.1756     8.4793     4.8417 C.3     
  35 C35           -0.0937     6.3624    -8.9022 C.3     
  36 F36            5.0446     9.5664     4.6996 F       
  37 F37            3.0332     8.8838     5.5407 F       
  38 F38            4.8182     7.4579     5.5495 F       
  39 H39            0.4115     3.5611     0.6000 H       
  40 H40           -0.4008     1.2582     0.8681 H       
  41 H41            3.5874    -0.1844     0.3787 H       
  42 H42            2.4508     5.0332     0.9528 H       
  43 H43            5.3319     2.0697     1.0590 H       
  44 H44            5.2142     1.3612    -0.5659 H       
  45 H45            6.1849     3.7288    -0.4478 H       
  46 H46            4.8161     3.5114    -1.5705 H       
  47 H47            1.3096     4.9526    -1.2095 H       
  48 H48            2.7830     5.9388    -1.3667 H       
  49 H49            0.7964     6.6903    -5.2549 H       
  50 H50            1.4260     6.1263    -2.9433 H       
  51 H51            3.5552     2.7027    -4.3585 H       
  52 H52            2.9250     3.2662    -6.6700 H       
  53 H53            5.4034     6.5927     3.3536 H       
  54 H54            2.7430     6.7023    -0.0100 H       
  55 H55            1.4170     8.4442     1.1103 H       
  56 H56            2.0734     9.2545     3.3385 H       
  57 H57           -0.0749     6.5386    -6.7552 H       
  58 H58           -0.5915    -0.2631     1.7778 H       
  59 H59           -0.8019    -1.8424    -0.8257 H       
  60 H60           -2.1699    -1.1735     0.0960 H       
  61 H61           -0.9884    -0.0797    -0.6630 H       
  62 H62            0.1442    -2.4331     2.7259 H       
  63 H63           -1.5085    -2.5478     2.0749 H       
  64 H64           -0.1405    -3.2167     1.1532 H       
  65 H65            2.0463     7.8162    -6.6253 H       
  66 H66            2.2408     7.6728    -8.3888 H       
  67 H67            0.8869     8.6124    -7.7162 H       
  68 H68           -0.7136     5.4658    -8.8976 H       
  69 H69           -0.7248     7.2398    -9.0432 H       
  70 H70            0.6291     6.3002    -9.7157 H       
@<TRIPOS>BOND
   1    1    2 ar
   2    1    6 ar
   3    1   39 1
   4    2    3 ar
   5    2   40 1
   6    3    4 ar
   7    3   29 1
   8    4    5 ar
   9    4   41 1
  10    5    6 ar
  11    5    8 1
  12    6    7 1
  13    7   10 1
  14    7   11 1
  15    7   42 1
  16    8    9 1
  17    8   43 1
  18    8   44 1
  19    9   10 1
  20    9   45 1
  21    9   46 1
  22   10   14 am
  23   11   12 1
  24   11   47 1
  25   11   48 1
  26   12   13 1
  27   13   20 ar
  28   13   19 ar
  29   14   15 2
  30   14   16 1
  31   16   23 ar
  32   16   22 ar
  33   17   18 ar
  34   17   21 ar
  35   17   27 1
  36   18   19 ar
  37   18   49 1
  38   19   50 1
  39   20   21 ar
  40   20   51 1
  41   21   52 1
  42   22   26 ar
  43   22   53 1
  44   23   24 ar
  45   23   54 1
  46   24   25 ar
  47   24   55 1
  48   25   26 ar
  49   25   56 1
  50   26   34 1
  51   27   28 1
  52   28   33 1
  53   28   35 1
  54   28   57 1
  55   29   30 1
  56   30   31 1
  57   30   32 1
  58   30   58 1
  59   31   59 1
  60   31   60 1
  61   31   61 1
  62   32   62 1
  63   32   63 1
  64   32   64 1
  65   33   65 1
  66   33   66 1
  67   33   67 1
  68   34   36 1
  69   34   37 1
  70   34   38 1
  71   35   68 1
  72   35   69 1
  73   35   70 1

#	End of record

