#	Name: ASD01180200
#	Creating user name:	WinNT
#	Creation time:	15. 06. 2019 19:07

#	Modifying user name:	WinNT
#	Modification time:	15. 06. 2019 19:07

#	Program:	/corina/corina34_cracker 3.40 0067  02.08.2006

@<TRIPOS>MOLECULE
ASD01180200
  61   63    0    0    0
SMALL
NO_CHARGES


@<TRIPOS>ATOM
   1 C1             0.7903     1.4269     0.9420 C.ar    
   2 C2             0.6491     0.0622     0.7940 C.ar    
   3 C3             1.7756    -0.7360     0.6054 C.ar    
   4 C4             3.0398    -0.1513     0.5672 C.ar    
   5 C5             3.1706     1.2143     0.7161 C.ar    
   6 C6             2.0485     2.0032     0.9034 C.ar    
   7 C7             1.6293    -2.2041     0.4462 C.ar    
   8 C8             2.7556    -3.0026     0.2576 C.ar    
   9 C9             2.6138    -4.3675     0.1106 C.ar    
  10 C10            1.3566    -4.9430     0.1498 C.ar    
  11 C11            0.2352    -4.1552     0.3368 C.ar    
  12 C12            0.3658    -2.7898     0.4906 C.ar    
  13 C13            1.2081    -6.4339    -0.0123 C.3     
  14 C14            1.0287    -7.0811     1.3624 C.3     
  15 N15            0.0362    -6.7204    -0.8436 N.pl3   
  16 C16            0.1297    -6.6412    -2.2228 C.ar    
  17 N17           -0.9587    -6.8050    -2.9622 N.ar    
  18 C18           -0.9172    -6.7381    -4.2767 C.ar    
  19 C19            0.2876    -6.4907    -4.9360 C.ar    
  20 C20            1.4554    -6.3134    -4.1780 C.ar    
  21 C21            1.3657    -6.3849    -2.8142 C.ar    
  22 C22            0.3332    -6.4170    -6.4089 C.2     
  23 N23           -0.7940    -6.5891    -7.1274 N.am    
  24 O24            1.3876    -6.2009    -6.9745 O.2     
  25 C25           -0.7488    -6.5159    -8.5899 C.3     
  26 C26           -2.1518    -6.7448    -9.1556 C.3     
  27 C27           -2.1053    -6.6695   -10.6600 C.2     
  28 O28           -3.2279    -6.8409   -11.3756 O.3     
  29 O29           -1.0575    -6.4548   -11.2221 O.2     
  30 C30            0.9902    -8.6028     1.2086 C.3     
  31 C31            2.3495    -9.0998     0.7126 C.3     
  32 C32            0.6753    -9.2443     2.5615 C.3     
  33 Cl33           2.2195     3.7207     1.0896 Cl      
  34 H34           -0.0825     2.0470     1.0838 H       
  35 H35           -0.3328    -0.3864     0.8247 H       
  36 H36            3.9158    -0.7659     0.4216 H       
  37 H37            4.1501     1.6685     0.6867 H       
  38 H38            3.7376    -2.5541     0.2261 H       
  39 H39            3.4860    -4.9874    -0.0357 H       
  40 H40           -0.7440    -4.6097     0.3666 H       
  41 H41           -0.5104    -2.1756     0.6369 H       
  42 H42            2.1003    -6.8381    -0.4905 H       
  43 H43            1.8622    -6.8020     2.0069 H       
  44 H44            0.0947    -6.7370     1.8068 H       
  45 H45           -0.8051    -6.9655    -0.4278 H       
  46 H46           -1.8227    -6.8762    -4.8490 H       
  47 H47            2.4026    -6.1205    -4.6598 H       
  48 H48            2.2458    -6.2530    -2.2024 H       
  49 H49           -1.6352    -6.7614    -6.6762 H       
  50 H50           -0.3906    -5.5322    -8.8936 H       
  51 H51           -0.0738    -7.2820    -8.9713 H       
  52 H52           -2.5100    -7.7284    -8.8520 H       
  53 H53           -2.8268    -5.9786    -8.7742 H       
  54 H54           -3.1483    -6.7837   -12.3377 H       
  55 H55            0.2187    -8.8759     0.4887 H       
  56 H56            2.3019   -10.1748     0.5384 H       
  57 H57            2.6048    -8.5920    -0.2175 H       
  58 H58            3.1104    -8.8868     1.4635 H       
  59 H59           -0.2931    -8.8902     2.9149 H       
  60 H60            0.6479   -10.3285     2.4519 H       
  61 H61            1.4468    -8.9713     3.2814 H       
@<TRIPOS>BOND
   1    1    2 ar
   2    1    6 ar
   3    1   34 1
   4    2    3 ar
   5    2   35 1
   6    3    4 ar
   7    3    7 1
   8    4    5 ar
   9    4   36 1
  10    5    6 ar
  11    5   37 1
  12    6   33 1
  13    7    8 ar
  14    7   12 ar
  15    8    9 ar
  16    8   38 1
  17    9   10 ar
  18    9   39 1
  19   10   11 ar
  20   10   13 1
  21   11   12 ar
  22   11   40 1
  23   12   41 1
  24   13   14 1
  25   13   15 1
  26   13   42 1
  27   14   30 1
  28   14   43 1
  29   14   44 1
  30   15   16 1
  31   15   45 1
  32   16   17 ar
  33   16   21 ar
  34   17   18 ar
  35   18   19 ar
  36   18   46 1
  37   19   20 ar
  38   19   22 1
  39   20   21 ar
  40   20   47 1
  41   21   48 1
  42   22   23 am
  43   22   24 2
  44   23   25 1
  45   23   49 1
  46   25   26 1
  47   25   50 1
  48   25   51 1
  49   26   27 1
  50   26   52 1
  51   26   53 1
  52   27   28 1
  53   27   29 2
  54   28   54 1
  55   30   31 1
  56   30   32 1
  57   30   55 1
  58   31   56 1
  59   31   57 1
  60   31   58 1
  61   32   59 1
  62   32   60 1
  63   32   61 1

#	End of record

