#	Name: ASD07930460
#	Creating user name:	WinNT
#	Creation time:	15. 06. 2019 21:12

#	Modifying user name:	WinNT
#	Modification time:	15. 06. 2019 21:12

#	Program:	/corina/corina34_cracker 3.40 0067  02.08.2006

@<TRIPOS>MOLECULE
ASD07930460
  48   50    0    0    0
SMALL
NO_CHARGES


@<TRIPOS>ATOM
   1 N1            -0.0310     1.2708     0.0144 N.2     
   2 N2             1.1853    -0.7246    -0.0116 N.pl3   
   3 C3             1.4411    -1.7641     0.9909 C.3     
   4 C4             0.3522    -2.8414     0.8921 C.3     
   5 S5            -1.2682    -2.0356     1.0911 S.o2    
   6 N6            -1.1838    -0.7699     0.0107 N.am    
   7 C7            -0.0083    -0.0324     0.0046 C.2     
   8 C8            -2.2955    -0.4517    -0.8889 C.3     
   9 C9             1.4192    -1.1422     2.3887 C.3     
  10 C10            2.7897    -2.3869     0.7373 C.ar    
  11 C11            3.5211    -2.0195    -0.3748 C.ar    
  12 C12            4.7643    -2.5936    -0.6079 C.ar    
  13 C13            5.2688    -3.5359     0.2784 C.ar    
  14 C14            4.5338    -3.9005     1.3896 C.ar    
  15 C15            3.2971    -3.3231     1.6228 C.ar    
  16 N16            5.5070    -2.2231    -1.7345 N.am    
  17 C17            6.8517    -2.1635    -1.6654 C.2     
  18 O18            7.4138    -2.3362    -0.6017 O.2     
  19 O19           -2.3084    -2.8643     0.5906 O.2     
  20 O20           -1.3686    -1.4127     2.3644 O.2     
  21 F21            2.5798    -3.6811     2.7103 F       
  22 C22            7.6442    -1.8876    -2.8854 C.ar    
  23 N23            7.0243    -1.6999    -4.0441 N.ar    
  24 C24            7.6900    -1.4526    -5.1507 C.ar    
  25 C25            9.0752    -1.3788    -5.1469 C.ar    
  26 C26            9.7627    -1.5689    -3.9565 C.ar    
  27 C27            9.0340    -1.8217    -2.8059 C.ar    
  28 Cl28           9.9400    -1.0526    -6.6164 Cl      
  29 C29           -3.1657     0.6375    -0.2586 C.3     
  30 H30            0.8005     1.7703     0.0100 H       
  31 H31            1.8557    -0.5212    -0.6825 H       
  32 H32            0.4036    -3.3275    -0.0821 H       
  33 H33            0.4942    -3.5808     1.6803 H       
  34 H34           -1.9020    -0.0966    -1.8413 H       
  35 H35           -2.8961    -1.3461    -1.0547 H       
  36 H36            0.4426    -0.6939     2.5716 H       
  37 H37            1.6093    -1.9152     3.1333 H       
  38 H38            2.1899    -0.3745     2.4569 H       
  39 H39            3.1267    -1.2867    -1.0631 H       
  40 H40            6.2350    -3.9837     0.0989 H       
  41 H41            4.9256    -4.6337     2.0791 H       
  42 H42            5.0541    -2.0091    -2.5651 H       
  43 H43            7.1512    -1.3053    -6.0750 H       
  44 H44           10.8411    -1.5165    -3.9270 H       
  45 H45            9.5363    -1.9742    -1.8621 H       
  46 H46           -3.9929     0.8742    -0.9279 H       
  47 H47           -3.5592     0.2824     0.6938 H       
  48 H48           -2.5651     1.5318    -0.0928 H       
@<TRIPOS>BOND
   1    1    7 2
   2    1   30 1
   3    2    3 1
   4    2    7 1
   5    2   31 1
   6    3    4 1
   7    3    9 1
   8    3   10 1
   9    4    5 1
  10    4   32 1
  11    4   33 1
  12    5    6 am
  13    5   19 2
  14    5   20 2
  15    6    7 1
  16    6    8 1
  17    8   29 1
  18    8   34 1
  19    8   35 1
  20    9   36 1
  21    9   37 1
  22    9   38 1
  23   10   11 ar
  24   10   15 ar
  25   11   12 ar
  26   11   39 1
  27   12   13 ar
  28   12   16 1
  29   13   14 ar
  30   13   40 1
  31   14   15 ar
  32   14   41 1
  33   15   21 1
  34   16   17 am
  35   16   42 1
  36   17   18 2
  37   17   22 1
  38   22   23 ar
  39   22   27 ar
  40   23   24 ar
  41   24   25 ar
  42   24   43 1
  43   25   26 ar
  44   25   28 1
  45   26   27 ar
  46   26   44 1
  47   27   45 1
  48   29   46 1
  49   29   47 1
  50   29   48 1

#	End of record

