#	Name: ASD07931704
#	Creating user name:	WinNT
#	Creation time:	15. 06. 2019 21:13

#	Modifying user name:	WinNT
#	Modification time:	15. 06. 2019 21:13

#	Program:	/corina/corina34_cracker 3.40 0067  02.08.2006

@<TRIPOS>MOLECULE
ASD07931704
  54   58    0    0    0
SMALL
NO_CHARGES


@<TRIPOS>ATOM
   1 C1             0.1536     3.8644    -0.6948 C.2     
   2 C2            -0.3223     2.6239    -0.3691 C.2     
   3 C3             0.6341     1.5648    -0.0381 C.2     
   4 N4             1.9505     1.8363    -0.0604 N.am    
   5 C5             2.4048     3.0924    -0.3935 C.2     
   6 C6             1.5353     4.0920    -0.7047 C.2     
   7 C7             2.9364     0.7991     0.2722 C.3     
   8 C8             4.1185     0.9371    -0.6988 C.3     
   9 N9             4.6982     2.2784    -0.5404 N.am    
  10 C10            3.8639     3.3374    -0.4085 C.2     
  11 C11            6.1510     2.4665    -0.5254 C.3     
  12 O12            0.2402     0.4487     0.2549 O.2     
  13 N13           -1.6970     2.3715    -0.3520 N.pl3   
  14 C14           -2.5444     2.3986    -1.4299 C.2     
  15 C15           -2.4455     2.0472     0.7349 C.2     
  16 N16           -3.6837     1.8886     0.3543 N.2     
  17 C17           -3.7729     2.0981    -0.9678 C.2     
  18 C18           -5.0308     2.0120    -1.7932 C.3     
  19 O19            4.3049     4.4657    -0.3051 O.2     
  20 C20            6.8729     1.6046     0.5238 C.3     
  21 C21            7.9683     1.3775    -0.5313 C.3     
  22 C22            6.8897     1.6442    -1.5944 C.3     
  23 O23            7.3194     2.3435     1.6626 O.3     
  24 C24            7.5707     1.6376     2.7963 C.ar    
  25 C25            7.8958     2.3011     3.9702 C.ar    
  26 C26            8.1509     1.5811     5.1215 C.ar    
  27 C27            8.0824     0.2005     5.1042 C.ar    
  28 C28            7.7589    -0.4634     3.9350 C.ar    
  29 C29            7.4970     0.2520     2.7830 C.ar    
  30 C30            7.6856    -1.9686     3.9196 C.3     
  31 F31            7.9820    -2.4630     5.1943 F       
  32 F32            6.3964    -2.3689     3.5523 F       
  33 F33            8.6103    -2.4711     2.9978 F       
  34 H34           -0.5309     4.6609    -0.9468 H       
  35 H35            1.9145     5.0700    -0.9619 H       
  36 H36            3.2833     0.9357     1.2965 H       
  37 H37            2.4843    -0.1868     0.1643 H       
  38 H38            4.8713     0.1832    -0.4687 H       
  39 H39            3.7681     0.8082    -1.7229 H       
  40 H40            6.4416     3.5168    -0.5025 H       
  41 H41           -2.2776     2.6186    -2.4531 H       
  42 H42           -2.0774     1.9386     1.7444 H       
  43 H43           -5.5142     2.9885    -1.8217 H       
  44 H44           -4.7793     1.7013    -2.8073 H       
  45 H45           -5.7086     1.2839    -1.3477 H       
  46 H46            6.3305     0.6981     0.7923 H       
  47 H47            8.7569     2.1297    -0.5110 H       
  48 H48            8.3546     0.3583    -0.5473 H       
  49 H49            6.3519     0.7484    -1.9051 H       
  50 H50            7.2438     2.2397    -2.4359 H       
  51 H51            7.9498     3.3797     3.9842 H       
  52 H52            8.4044     2.0973     6.0357 H       
  53 H53            8.2821    -0.3605     6.0052 H       
  54 H54            7.2441    -0.2669     1.8702 H       
@<TRIPOS>BOND
   1    1    2 2
   2    1    6 1
   3    1   34 1
   4    2    3 1
   5    2   13 1
   6    3    4 am
   7    3   12 2
   8    4    5 1
   9    4    7 1
  10    5    6 2
  11    5   10 1
  12    6   35 1
  13    7    8 1
  14    7   36 1
  15    7   37 1
  16    8    9 1
  17    8   38 1
  18    8   39 1
  19    9   10 am
  20    9   11 1
  21   10   19 2
  22   11   20 1
  23   11   22 1
  24   11   40 1
  25   13   14 1
  26   13   15 1
  27   14   17 2
  28   14   41 1
  29   15   16 2
  30   15   42 1
  31   16   17 1
  32   17   18 1
  33   18   43 1
  34   18   44 1
  35   18   45 1
  36   20   21 1
  37   20   23 1
  38   20   46 1
  39   21   22 1
  40   21   47 1
  41   21   48 1
  42   22   49 1
  43   22   50 1
  44   23   24 1
  45   24   25 ar
  46   24   29 ar
  47   25   26 ar
  48   25   51 1
  49   26   27 ar
  50   26   52 1
  51   27   28 ar
  52   27   53 1
  53   28   29 ar
  54   28   30 1
  55   29   54 1
  56   30   31 1
  57   30   32 1
  58   30   33 1

#	End of record

