#	Name: ASD08170508
#	Creating user name:	WinNT
#	Creation time:	15. 06. 2019 21:17

#	Modifying user name:	WinNT
#	Modification time:	15. 06. 2019 21:17

#	Program:	/corina/corina34_cracker 3.40 0067  02.08.2006

@<TRIPOS>MOLECULE
ASD08170508
  81   84    0    0    0
SMALL
NO_CHARGES


@<TRIPOS>ATOM
   1 N1            -0.0159     1.3150     0.0224 N.ar    
   2 C2             0.0017    -0.0034     0.0124 C.ar    
   3 C3            -1.2931    -0.7743     0.0243 C.3     
   4 C4            -4.2984    -0.6746     2.4294 C.3     
   5 C5            -5.5932    -1.4455     2.4412 C.2     
   6 N6            -5.8033    -2.5767     3.0361 N.2     
   7 N7            -6.9625    -3.0651     2.9277 N.2     
   8 C8            -7.8359    -2.3975     2.2358 C.2     
   9 S9            -7.0970    -0.9657     1.6538 S.3     
  10 N10           -9.1540    -2.7791     2.0098 N.am    
  11 C11           -3.4530    -1.1158     1.2328 C.3     
  12 C12           -2.1384    -0.3331     1.2208 C.3     
  13 C13            1.2122    -0.6808    -0.0095 C.ar    
  14 C14            2.3785     0.0690    -0.0202 C.ar    
  15 C15            2.2616     1.4575    -0.0083 C.ar    
  16 N16            1.0600     2.0148     0.0126 N.ar    
  17 N17            3.4043     2.2567    -0.0179 N.am    
  18 C18           -9.6205    -3.9317     2.5297 C.2     
  19 O19           -8.8908    -4.6361     3.1947 O.2     
  20 C20          -11.0488    -4.3451     2.2847 C.3     
  21 C21            3.2889     3.5963    -0.1113 C.2     
  22 C22            4.5141     4.4673    -0.0047 C.3     
  23 O23            2.1992     4.1007    -0.2812 O.2     
  24 C24            4.1152     5.9141    -0.1410 C.ar    
  25 C25            4.0794     6.5066    -1.3894 C.ar    
  26 C26            3.7797     6.6473     0.9819 C.ar    
  27 C27          -11.3154    -5.6609     2.9693 C.ar    
  28 C28          -11.1988    -6.8434     2.2632 C.ar    
  29 C29          -11.4434    -8.0505     2.8913 C.ar    
  30 C30          -11.8040    -8.0749     4.2253 C.ar    
  31 C31          -11.9197    -6.8921     4.9319 C.ar    
  32 C32          -11.6710    -5.6856     4.3051 C.ar    
  33 C33            3.4139     7.9744     0.8570 C.ar    
  34 C34            3.3840     8.5686    -0.3908 C.ar    
  35 C35            3.7135     7.8338    -1.5144 C.ar    
  36 C36          -11.7971    -4.3964     5.0752 C.3     
  37 N37          -13.0865    -3.7705     4.7719 N.am    
  38 C38          -13.4200    -2.5998     5.3505 C.2     
  39 O39          -14.6050    -2.0246     5.0717 O.3     
  40 O40          -12.6512    -2.0635     6.1236 O.2     
  41 C41          -14.8974    -0.7645     5.7311 C.3     
  42 C42          -13.8377     0.2701     5.3470 C.3     
  43 C43          -16.2770    -0.2681     5.2937 C.3     
  44 C44          -14.8857    -0.9677     7.2475 C.3     
  45 H45           -1.8401    -0.5802    -0.8983 H       
  46 H46           -1.0805    -1.8405     0.1031 H       
  47 H47           -4.5110     0.3916     2.3505 H       
  48 H48           -3.7514    -0.8687     3.3520 H       
  49 H49           -9.7376    -2.2157     1.4779 H       
  50 H50           -3.2404    -2.1820     1.3116 H       
  51 H51           -4.0000    -0.9216     0.3102 H       
  52 H52           -1.5915    -0.5273     2.1434 H       
  53 H53           -2.3511     0.7331     1.1420 H       
  54 H54            1.2451    -1.7603    -0.0176 H       
  55 H55            3.3472    -0.4082    -0.0369 H       
  56 H56            4.2821     1.8485     0.0427 H       
  57 H57          -11.7206    -3.5852     2.6839 H       
  58 H58          -11.2174    -4.4524     1.2132 H       
  59 H59            4.9880     4.3107     0.9643 H       
  60 H60            5.2148     4.2073    -0.7981 H       
  61 H61            4.3376     5.9327    -2.2671 H       
  62 H62            3.8031     6.1830     1.9568 H       
  63 H63          -10.9170    -6.8244     1.2208 H       
  64 H64          -11.3530    -8.9745     2.3394 H       
  65 H65          -11.9957    -9.0178     4.7158 H       
  66 H66          -12.2018    -6.9112     5.9742 H       
  67 H67            3.1511     8.5470     1.7342 H       
  68 H68            3.0978     9.6054    -0.4885 H       
  69 H69            3.6901     8.2980    -2.4892 H       
  70 H70          -11.7364    -4.6039     6.1436 H       
  71 H71          -10.9898    -3.7221     4.7896 H       
  72 H72          -13.7002    -4.1987     4.1547 H       
  73 H73          -13.8461     0.4149     4.2667 H       
  74 H74          -14.0572     1.2161     5.8420 H       
  75 H75          -12.8549    -0.0835     5.6586 H       
  76 H76          -17.0319    -1.0052     5.5674 H       
  77 H77          -16.4965     0.6779     5.7888 H       
  78 H78          -16.2853    -0.1233     4.2134 H       
  79 H79          -13.9029    -1.3213     7.5591 H       
  80 H80          -15.1052    -0.0217     7.7426 H       
  81 H81          -15.6406    -1.7048     7.5212 H       
@<TRIPOS>BOND
   1    1    2 ar
   2    1   16 ar
   3    2    3 1
   4    2   13 ar
   5    3   12 1
   6    3   45 1
   7    3   46 1
   8    4    5 1
   9    4   11 1
  10    4   47 1
  11    4   48 1
  12    5    6 2
  13    5    9 1
  14    6    7 1
  15    7    8 2
  16    8    9 1
  17    8   10 1
  18   10   18 am
  19   10   49 1
  20   11   12 1
  21   11   50 1
  22   11   51 1
  23   12   52 1
  24   12   53 1
  25   13   14 ar
  26   13   54 1
  27   14   15 ar
  28   14   55 1
  29   15   16 ar
  30   15   17 1
  31   17   21 am
  32   17   56 1
  33   18   19 2
  34   18   20 1
  35   20   27 1
  36   20   57 1
  37   20   58 1
  38   21   22 1
  39   21   23 2
  40   22   24 1
  41   22   59 1
  42   22   60 1
  43   24   26 ar
  44   24   25 ar
  45   25   35 ar
  46   25   61 1
  47   26   33 ar
  48   26   62 1
  49   27   28 ar
  50   27   32 ar
  51   28   29 ar
  52   28   63 1
  53   29   30 ar
  54   29   64 1
  55   30   31 ar
  56   30   65 1
  57   31   32 ar
  58   31   66 1
  59   32   36 1
  60   33   34 ar
  61   33   67 1
  62   34   35 ar
  63   34   68 1
  64   35   69 1
  65   36   37 1
  66   36   70 1
  67   36   71 1
  68   37   38 am
  69   37   72 1
  70   38   39 1
  71   38   40 2
  72   39   41 1
  73   41   42 1
  74   41   43 1
  75   41   44 1
  76   42   73 1
  77   42   74 1
  78   42   75 1
  79   43   76 1
  80   43   77 1
  81   43   78 1
  82   44   79 1
  83   44   80 1
  84   44   81 1

#	End of record

