#	Name: ASD01811312
#	Creating user name:	WinNT
#	Creation time:	15. 06. 2019 19:26

#	Modifying user name:	WinNT
#	Modification time:	15. 06. 2019 19:26

#	Program:	/corina/corina34_cracker 3.40 0067  02.08.2006

@<TRIPOS>MOLECULE
ASD01811312
  58   61    0    0    0
SMALL
NO_CHARGES


@<TRIPOS>ATOM
   1 N1             0.1639     1.6108    -0.1536 N.am    
   2 C2             0.3197     0.1815     0.1533 C.3     
   3 C3             1.7782    -0.2013    -0.1751 C.3     
   4 C4             2.5174     1.1615    -0.1139 C.3     
   5 C5             1.4426     2.1238    -0.6782 C.3     
   6 C6            -0.9630     2.3314     0.0117 C.2     
   7 O7            -1.9654     1.8005     0.4494 O.2     
   8 N8            -0.9787     3.6406    -0.3082 N.am    
   9 C9            -2.1705     4.3691    -0.2169 C.ar    
  10 C10           -2.1343     5.7264     0.0799 C.ar    
  11 C11           -3.3082     6.4503     0.1706 C.ar    
  12 C12           -4.5243     5.8301    -0.0328 C.ar    
  13 C13           -4.5714     4.4675    -0.3314 C.ar    
  14 C14           -3.3862     3.7381    -0.4282 C.ar    
  15 C15           -0.8106     6.4110     0.3039 C.3     
  16 C16           -5.8728     3.8005    -0.5498 C.2     
  17 O17           -6.0254     2.6417    -0.2161 O.2     
  18 N18           -6.8899     4.4774    -1.1189 N.am    
  19 C19           -8.2215     3.8679    -1.2368 C.3     
  20 C20           -8.6691     3.9405    -2.7001 C.3     
  21 C21           -8.5975     5.3920    -3.1799 C.3     
  22 C22           -7.1530     5.8896    -3.0914 C.3     
  23 C23           -6.6896     5.8412    -1.6275 C.3     
  24 C24           -8.4150     4.7629    -5.6021 C.ar    
  25 C25           -9.0695     5.4724    -4.6088 C.ar    
  26 C26          -10.1634     6.2568    -4.9413 C.ar    
  27 C27          -10.5656     6.3031    -6.2662 C.ar    
  28 C28           -9.8601     5.5631    -7.2141 C.ar    
  29 N29           -8.8175     4.8237    -6.8532 N.ar    
  30 C30          -10.2632     5.6003    -8.5877 C.1     
  31 N31          -10.5829     5.6297    -9.6774 N.1     
  32 H32            0.1192     0.0052     1.2101 H       
  33 H33           -0.3646    -0.4059    -0.4589 H       
  34 H34            2.1741    -0.8887     0.5725 H       
  35 H35            1.8480    -0.6335    -1.1733 H       
  36 H36            2.7737     1.4211     0.9132 H       
  37 H37            3.4051     1.1532    -0.7463 H       
  38 H38            1.4438     2.0968    -1.7678 H       
  39 H39            1.6184     3.1392    -0.3228 H       
  40 H40           -0.1642     4.0780    -0.6016 H       
  41 H41           -3.2737     7.5047     0.4019 H       
  42 H42           -5.4394     6.3991     0.0393 H       
  43 H43           -3.4162     2.6844    -0.6630 H       
  44 H44           -0.4344     6.7938    -0.6448 H       
  45 H45           -0.9426     7.2373     1.0024 H       
  46 H46           -0.0975     5.6971     0.7162 H       
  47 H47           -8.1759     2.8260    -0.9200 H       
  48 H48           -8.9291     4.4117    -0.6109 H       
  49 H49           -8.0128     3.3222    -3.3124 H       
  50 H50           -9.6940     3.5793    -2.7854 H       
  51 H51           -9.2350     6.0140    -2.5515 H       
  52 H52           -6.5109     5.2529    -3.7000 H       
  53 H53           -7.0987     6.9157    -3.4552 H       
  54 H54           -7.2747     6.5426    -1.0327 H       
  55 H55           -5.6328     6.1017    -1.5685 H       
  56 H56           -7.5600     4.1546    -5.3468 H       
  57 H57          -10.6903     6.8189    -4.1844 H       
  58 H58          -11.4137     6.9035    -6.5605 H       
@<TRIPOS>BOND
   1    1    2 1
   2    1    5 1
   3    1    6 am
   4    2    3 1
   5    2   32 1
   6    2   33 1
   7    3    4 1
   8    3   34 1
   9    3   35 1
  10    4    5 1
  11    4   36 1
  12    4   37 1
  13    5   38 1
  14    5   39 1
  15    6    7 2
  16    6    8 am
  17    8    9 1
  18    8   40 1
  19    9   10 ar
  20    9   14 ar
  21   10   11 ar
  22   10   15 1
  23   11   12 ar
  24   11   41 1
  25   12   13 ar
  26   12   42 1
  27   13   14 ar
  28   13   16 1
  29   14   43 1
  30   15   44 1
  31   15   45 1
  32   15   46 1
  33   16   17 2
  34   16   18 am
  35   18   19 1
  36   18   23 1
  37   19   20 1
  38   19   47 1
  39   19   48 1
  40   20   21 1
  41   20   49 1
  42   20   50 1
  43   21   22 1
  44   21   25 1
  45   21   51 1
  46   22   23 1
  47   22   52 1
  48   22   53 1
  49   23   54 1
  50   23   55 1
  51   24   25 ar
  52   24   29 ar
  53   24   56 1
  54   25   26 ar
  55   26   27 ar
  56   26   57 1
  57   27   28 ar
  58   27   58 1
  59   28   29 ar
  60   28   30 1
  61   30   31 3

#	End of record

