#	Name: ASD01914696
#	Creating user name:	WinNT
#	Creation time:	15. 06. 2019 20:04

#	Modifying user name:	WinNT
#	Modification time:	15. 06. 2019 20:04

#	Program:	/corina/corina34_cracker 3.40 0067  02.08.2006

@<TRIPOS>MOLECULE
ASD01914696
  42   45    0    0    0
SMALL
NO_CHARGES


@<TRIPOS>ATOM
   1 C1            -0.0169     1.3931     0.0097 C.ar    
   2 C2             0.0021    -0.0041     0.0020 C.ar    
   3 C3             1.2253    -0.6794    -0.0133 C.ar    
   4 C4             2.4042     0.0364    -0.0207 C.ar    
   5 C5             2.3776     1.4199    -0.0130 C.ar    
   6 C6             1.1701     2.0955     0.0021 C.ar    
   7 C7            -1.2261    -0.7403     0.0103 C.1     
   8 C8            -2.2331    -1.3439     0.0170 C.1     
   9 C9            -3.4613    -2.0802     0.0253 C.ar    
  10 C10           -3.4525    -3.4771     0.0177 C.ar    
  11 N11           -4.5823    -4.1534     0.0253 N.ar    
  12 C12           -5.7555    -3.5504     0.0406 C.ar    
  13 C13           -5.8499    -2.1699     0.0495 C.ar    
  14 C14           -4.6930    -1.4118     0.0470 C.ar    
  15 C15           -7.1994    -1.4993     0.0664 C.3     
  16 C16           -7.7817    -1.4910     1.4930 C.3     
  17 O17           -9.0120    -2.2628     1.3763 O.3     
  18 C18           -9.1631    -2.6728     0.1120 C.2     
  19 N19           -8.1756    -2.2831    -0.7058 N.am    
  20 O20          -10.1091    -3.3381    -0.2608 O.2     
  21 C21           -8.0822    -0.0812     1.9327 C.ar    
  22 C22           -9.3550     0.4347     1.7773 C.ar    
  23 C23           -9.6323     1.7279     2.1802 C.ar    
  24 C24           -8.6374     2.5073     2.7397 C.ar    
  25 C25           -7.3619     1.9935     2.8971 C.ar    
  26 C26           -7.0850     0.6950     2.4974 C.ar    
  27 F27           -6.3887     2.7549     3.4434 F       
  28 F28           -5.8409     0.1911     2.6505 F       
  29 H29           -0.9587     1.9217     0.0170 H       
  30 H30            1.2476    -1.7591    -0.0189 H       
  31 H31            3.3504    -0.4841    -0.0322 H       
  32 H32            3.3040     1.9752    -0.0185 H       
  33 H33            1.1570     3.1754     0.0077 H       
  34 H34           -2.5113    -4.0068     0.0051 H       
  35 H35           -6.6576    -4.1442     0.0460 H       
  36 H36           -4.7378    -0.3327     0.0537 H       
  37 H37           -7.1261    -0.4840    -0.3232 H       
  38 H38           -7.0941    -1.9711     2.1893 H       
  39 H39           -8.1143    -2.4853    -1.6525 H       
  40 H40          -10.1337    -0.1728     1.3404 H       
  41 H41          -10.6272     2.1295     2.0574 H       
  42 H42           -8.8551     3.5175     3.0537 H       
@<TRIPOS>BOND
   1    1    2 ar
   2    1    6 ar
   3    1   29 1
   4    2    3 ar
   5    2    7 1
   6    3    4 ar
   7    3   30 1
   8    4    5 ar
   9    4   31 1
  10    5    6 ar
  11    5   32 1
  12    6   33 1
  13    7    8 3
  14    8    9 1
  15    9   10 ar
  16    9   14 ar
  17   10   11 ar
  18   10   34 1
  19   11   12 ar
  20   12   13 ar
  21   12   35 1
  22   13   14 ar
  23   13   15 1
  24   14   36 1
  25   15   16 1
  26   15   19 1
  27   15   37 1
  28   16   17 1
  29   16   21 1
  30   16   38 1
  31   17   18 1
  32   18   19 am
  33   18   20 2
  34   19   39 1
  35   21   22 ar
  36   21   26 ar
  37   22   23 ar
  38   22   40 1
  39   23   24 ar
  40   23   41 1
  41   24   25 ar
  42   24   42 1
  43   25   26 ar
  44   25   27 1
  45   26   28 1

#	End of record

