#	Name: ASD01901314
#	Creating user name:	WinNT
#	Creation time:	15. 06. 2019 19:53

#	Modifying user name:	WinNT
#	Modification time:	15. 06. 2019 19:53

#	Program:	/corina/corina34_cracker 3.40 0067  02.08.2006

@<TRIPOS>MOLECULE
ASD01901314
  40   43    0    0    0
SMALL
NO_CHARGES


@<TRIPOS>ATOM
   1 C1            -0.0167     1.3826     0.0096 C.ar    
   2 C2             0.0021    -0.0041     0.0020 C.ar    
   3 C3             1.2155    -0.6820    -0.0132 C.ar    
   4 C4             2.4043     0.0222    -0.0208 C.ar    
   5 C5             2.3936     1.4030    -0.0133 C.ar    
   6 C6             1.1819     2.0910     0.0020 C.ar    
   7 C7             1.1690     3.5752     0.0096 C.2     
   8 N8             0.6239     5.6024    -1.0709 N.2     
   9 C9             0.6329     4.2919    -1.0822 C.2     
  10 C10            1.6708     4.2671     1.0762 C.2     
  11 C11            1.1196     6.2897    -0.0308 C.2     
  12 N12            1.2162     7.5909     0.2017 N.2     
  13 N13            1.6437     5.6299     1.0510 N.pl3   
  14 C14            2.0591     6.5817     1.9428 C.2     
  15 C15            1.7844     7.7847     1.3956 C.2     
  16 C16            2.0711     9.1233     2.0259 C.3     
  17 O17            2.6834     8.9275     3.3021 O.3     
  18 C18            3.0087    10.0424     4.0079 C.ar    
  19 C19            2.7388    11.2989     3.4853 C.ar    
  20 C20            3.6060     9.9258     5.2546 C.ar    
  21 C21            3.9357    11.0607     5.9700 C.ar    
  22 C22            3.6705    12.3119     5.4448 C.ar    
  23 C23            3.0705    12.4306     4.2047 C.ar    
  24 N24           -1.1978    -0.7192     0.0101 N.pl3   
  25 H25           -0.9584     1.9115     0.0170 H       
  26 H26            1.2292    -1.7619    -0.0188 H       
  27 H27            3.3446    -0.5089    -0.0322 H       
  28 H28            3.3248     1.9500    -0.0192 H       
  29 H29            0.2292     3.7584    -1.9300 H       
  30 H30            2.0821     3.7424     1.9258 H       
  31 H31            2.5196     6.4037     2.9034 H       
  32 H32            2.7442     9.6908     1.3832 H       
  33 H33            1.1384     9.6733     2.1509 H       
  34 H34            2.2702    11.3922     2.5168 H       
  35 H35            3.8127     8.9487     5.6656 H       
  36 H36            4.4007    10.9705     6.9406 H       
  37 H37            3.9287    13.1978     6.0058 H       
  38 H38            2.8606    13.4090     3.7984 H       
  39 H39           -2.0445    -0.2459     0.0210 H       
  40 H40           -1.1844    -1.6891     0.0048 H       
@<TRIPOS>BOND
   1    1    2 ar
   2    1    6 ar
   3    1   25 1
   4    2    3 ar
   5    2   24 1
   6    3    4 ar
   7    3   26 1
   8    4    5 ar
   9    4   27 1
  10    5    6 ar
  11    5   28 1
  12    6    7 1
  13    7   10 2
  14    7    9 1
  15    8    9 2
  16    8   11 1
  17    9   29 1
  18   10   13 1
  19   10   30 1
  20   11   13 1
  21   11   12 2
  22   12   15 1
  23   13   14 1
  24   14   15 2
  25   14   31 1
  26   15   16 1
  27   16   17 1
  28   16   32 1
  29   16   33 1
  30   17   18 1
  31   18   20 ar
  32   18   19 ar
  33   19   23 ar
  34   19   34 1
  35   20   21 ar
  36   20   35 1
  37   21   22 ar
  38   21   36 1
  39   22   23 ar
  40   22   37 1
  41   23   38 1
  42   24   39 1
  43   24   40 1

#	End of record

