#	Name: ASD01208576
#	Creating user name:	WinNT
#	Creation time:	15. 06. 2019 19:10

#	Modifying user name:	WinNT
#	Modification time:	15. 06. 2019 19:10

#	Program:	/corina/corina34_cracker 3.40 0067  02.08.2006

@<TRIPOS>MOLECULE
ASD01208576
  14   14    0    0    0
SMALL
NO_CHARGES


@<TRIPOS>ATOM
   1 C1            -0.0167     1.3794     0.0096 C.ar    
   2 C2             0.0021    -0.0041     0.0020 C.ar    
   3 N3             1.1183     2.0599     0.0024 N.ar    
   4 N4             1.1547    -0.6512    -0.0125 N.ar    
   5 C5             2.2953     0.0280    -0.0198 C.ar    
   6 C6             2.2727     1.4206    -0.0121 C.ar    
   7 S7             3.8341    -0.8302    -0.0386 S.3     
   8 C8             3.3295    -2.5726    -0.0426 C.3     
   9 Cl9           -1.5330     2.2247     0.0214 Cl      
  10 H10           -0.9262    -0.5560     0.0083 H       
  11 H11            3.1986     1.9765    -0.0183 H       
  12 H12            2.7433    -2.7832     0.8519 H       
  13 H13            2.7265    -2.7743    -0.9280 H       
  14 H14            4.2155    -3.2074    -0.0541 H       
@<TRIPOS>BOND
   1    1    2 ar
   2    1    3 ar
   3    1    9 1
   4    2    4 ar
   5    2   10 1
   6    3    6 ar
   7    4    5 ar
   8    5    6 ar
   9    5    7 1
  10    6   11 1
  11    7    8 1
  12    8   12 1
  13    8   13 1
  14    8   14 1

#	End of record

