#	Name: ASD08070010
#	Creating user name:	WinNT
#	Creation time:	15. 06. 2019 21:14

#	Modifying user name:	WinNT
#	Modification time:	15. 06. 2019 21:14

#	Program:	/corina/corina34_cracker 3.40 0067  02.08.2006

@<TRIPOS>MOLECULE
ASD08070010
  45   46    0    0    0
SMALL
NO_CHARGES


@<TRIPOS>ATOM
   1 C1            -0.0168     1.3882     0.0097 C.ar    
   2 C2             0.0021    -0.0041     0.0020 C.ar    
   3 C3            -1.1728    -0.7233     0.0094 C.ar    
   4 C4            -2.3946    -0.0611     0.0241 C.ar    
   5 C5            -2.4165     1.3459     0.0319 C.ar    
   6 C6            -1.2196     2.0662     0.0305 C.ar    
   7 O7            -3.6735    -0.4880     0.0336 O.3     
   8 C8            -4.5283     0.5558     0.0470 C.2     
   9 C9            -3.8301     1.7207     0.0469 C.2     
  10 C10           -5.9941     0.4484     0.0603 C.2     
  11 N11           -6.5809    -0.7649     0.0601 N.am    
  12 O12           -6.6777     1.4547     0.0715 O.2     
  13 C13           -8.0419    -0.8719     0.0734 C.3     
  14 C14           -8.5733    -0.7770    -1.3582 C.3     
  15 O15           -8.1185    -1.9035    -2.1108 O.3     
  16 C16           -8.5613    -1.9120    -3.4694 C.3     
  17 C17           -8.4493    -2.2159     0.6806 C.3     
  18 C18           -8.0268    -2.2606     2.1504 C.3     
  19 C19           -8.8084    -1.2071     2.9379 C.3     
  20 C20           -8.3212    -3.6482     2.7237 C.3     
  21 O21            1.1525     2.0821     0.0022 O.3     
  22 C22            2.3601     1.3183    -0.0134 C.3     
  23 H23            0.9477    -0.5256    -0.0102 H       
  24 H24           -1.1445    -1.8029     0.0033 H       
  25 H25           -1.2349     3.1460     0.0365 H       
  26 H26           -4.2365     2.7213     0.0567 H       
  27 H27           -6.0359    -1.5672     0.0512 H       
  28 H28           -8.4602    -0.0617     0.6706 H       
  29 H29           -9.6631    -0.7673    -1.3414 H       
  30 H30           -8.2089     0.1401    -1.8210 H       
  31 H31           -8.1741    -2.7982    -3.9722 H       
  32 H32           -9.6509    -1.9258    -3.4964 H       
  33 H33           -8.1966    -1.0183    -3.9759 H       
  34 H34           -9.5306    -2.3339     0.6096 H       
  35 H35           -7.9593    -3.0237     0.1370 H       
  36 H36           -6.9594    -2.0543     2.2280 H       
  37 H37           -9.8759    -1.4134     2.8603 H       
  38 H38           -8.5075    -1.2389     3.9851 H       
  39 H39           -8.5988    -0.2185     2.5295 H       
  40 H40           -7.7644    -4.3987     2.1627 H       
  41 H41           -8.0202    -3.6800     3.7709 H       
  42 H42           -9.3887    -3.8545     2.6461 H       
  43 H43            2.4010     0.6850     0.8728 H       
  44 H44            2.3840     0.6946    -0.9070 H       
  45 H45            3.2165     1.9926    -0.0180 H       
@<TRIPOS>BOND
   1    1    2 ar
   2    1   21 1
   3    1    6 ar
   4    2    3 ar
   5    2   23 1
   6    3    4 ar
   7    3   24 1
   8    4    5 ar
   9    4    7 1
  10    5    6 ar
  11    5    9 1
  12    6   25 1
  13    7    8 1
  14    8    9 2
  15    8   10 1
  16    9   26 1
  17   10   11 am
  18   10   12 2
  19   11   13 1
  20   11   27 1
  21   13   14 1
  22   13   17 1
  23   13   28 1
  24   14   15 1
  25   14   29 1
  26   14   30 1
  27   15   16 1
  28   16   31 1
  29   16   32 1
  30   16   33 1
  31   17   18 1
  32   17   34 1
  33   17   35 1
  34   18   19 1
  35   18   20 1
  36   18   36 1
  37   19   37 1
  38   19   38 1
  39   19   39 1
  40   20   40 1
  41   20   41 1
  42   20   42 1
  43   21   22 1
  44   22   43 1
  45   22   44 1
  46   22   45 1

#	End of record

