#	Name: ASD02508316
#	Creating user name:	WinNT
#	Creation time:	15. 06. 2019 20:24

#	Modifying user name:	WinNT
#	Modification time:	15. 06. 2019 20:24

#	Program:	/corina/corina34_cracker 3.40 0067  02.08.2006

@<TRIPOS>MOLECULE
ASD02508316
  36   37    0    0    0
SMALL
NO_CHARGES


@<TRIPOS>ATOM
   1 C1            -0.0168     1.3861     0.0097 C.ar    
   2 C2             0.0021    -0.0041     0.0020 C.ar    
   3 C3            -1.1927    -0.7113     0.0096 C.ar    
   4 C4            -2.3958    -0.0323     0.0247 C.ar    
   5 C5            -2.4116     1.3501     0.0322 C.ar    
   6 C6            -1.2236     2.0585     0.0306 C.ar    
   7 S7            -3.9486     2.2114     0.0515 S.o2    
   8 O8            -3.6928     3.5007    -0.4885 O.2     
   9 O9            -4.9147     1.3203    -0.4886 O.2     
  10 C10           -4.3875     2.4573     1.7401 C.ar    
  11 C11           -3.9744     3.5981     2.4026 C.ar    
  12 C12           -4.3188     3.7911     3.7273 C.ar    
  13 C13           -5.0766     2.8434     4.3896 C.ar    
  14 C14           -5.4904     1.7030     3.7269 C.ar    
  15 C15           -5.1497     1.5121     2.4008 C.ar    
  16 N16            1.2207    -0.6879    -0.0137 N.am    
  17 C17            1.7929    -1.1360    -1.2858 C.3     
  18 S18            2.0181    -0.9918     1.4055 S.o2    
  19 C19            1.3812    -2.6017     1.9468 C.3     
  20 O20            3.3830    -1.0979     1.0249 O.2     
  21 O21            1.5796     0.0379     2.2812 O.2     
  22 Cl22           2.1691    -3.0684     3.4999 Cl      
  23 Cl23           1.4739     2.2757     0.0002 Cl      
  24 H24           -1.1815    -1.7913     0.0033 H       
  25 H25           -3.3253    -0.5822     0.0302 H       
  26 H26           -1.2394     3.1384     0.0369 H       
  27 H27           -3.3824     4.3385     1.8852 H       
  28 H28           -3.9955     4.6820     4.2451 H       
  29 H29           -5.3450     2.9938     5.4248 H       
  30 H30           -6.0822     0.9624     4.2444 H       
  31 H31           -5.4730     0.6212     1.8831 H       
  32 H32            2.4349    -0.3539    -1.6910 H       
  33 H33            2.3802    -2.0395    -1.1218 H       
  34 H34            0.9892    -1.3481    -1.9910 H       
  35 H35            0.3029    -2.5357     2.0920 H       
  36 H36            1.6004    -3.3529     1.1881 H       
@<TRIPOS>BOND
   1    1    2 ar
   2    1   23 1
   3    1    6 ar
   4    2    3 ar
   5    2   16 1
   6    3    4 ar
   7    3   24 1
   8    4    5 ar
   9    4   25 1
  10    5    6 ar
  11    5    7 1
  12    6   26 1
  13    7    8 2
  14    7    9 2
  15    7   10 1
  16   10   11 ar
  17   10   15 ar
  18   11   12 ar
  19   11   27 1
  20   12   13 ar
  21   12   28 1
  22   13   14 ar
  23   13   29 1
  24   14   15 ar
  25   14   30 1
  26   15   31 1
  27   16   17 1
  28   16   18 am
  29   17   32 1
  30   17   33 1
  31   17   34 1
  32   18   19 1
  33   18   20 2
  34   18   21 2
  35   19   22 1
  36   19   35 1
  37   19   36 1

#	End of record

