#	Name: ASD01916428
#	Creating user name:	WinNT
#	Creation time:	15. 06. 2019 20:07

#	Modifying user name:	WinNT
#	Modification time:	15. 06. 2019 20:07

#	Program:	/corina/corina34_cracker 3.40 0067  02.08.2006

@<TRIPOS>MOLECULE
ASD01916428
  27   27    0    0    0
SMALL
NO_CHARGES


@<TRIPOS>ATOM
   1 C1            -0.0557     1.4818     0.2614 C.2     
   2 C2            -0.0597    -0.0251     0.2489 C.3     
   3 C3             1.3501    -0.5413     0.5437 C.3     
   4 C4             1.3463    -2.0132     0.5315 C.1     
   5 C5             1.3432    -3.1872     0.5218 C.1     
   6 O6             0.9735     2.0837     0.4842 O.2     
   7 N7            -1.1946     2.1607     0.0195 N.am    
   8 C8            -2.4108     1.4386    -0.3621 C.3     
   9 C9            -1.2153     3.5563     0.1328 C.ar    
  10 C10           -0.4996     4.3374    -0.7646 C.ar    
  11 C11           -0.5213     5.7137    -0.6511 C.ar    
  12 C12           -1.2563     6.3146     0.3570 C.ar    
  13 C13           -1.9708     5.5374     1.2531 C.ar    
  14 C14           -1.9563     4.1610     1.1394 C.ar    
  15 F15           -1.2759     7.6610     0.4667 F       
  16 H16           -0.7478    -0.3930     1.0099 H       
  17 H17           -0.3787    -0.3795    -0.7313 H       
  18 H18            2.0383    -0.1734    -0.2173 H       
  19 H19            1.6692    -0.1869     1.5239 H       
  20 H20            1.3404    -4.2372     0.5130 H       
  21 H21           -2.9731     1.1752     0.5337 H       
  22 H22           -3.0239     2.0726    -1.0026 H       
  23 H23           -2.1403     0.5308    -0.9014 H       
  24 H24            0.0741     3.8690    -1.5508 H       
  25 H25            0.0356     6.3216    -1.3487 H       
  26 H26           -2.5431     6.0080     2.0388 H       
  27 H27           -2.5173     3.5554     1.8358 H       
@<TRIPOS>BOND
   1    1    2 1
   2    1    6 2
   3    1    7 am
   4    2    3 1
   5    2   16 1
   6    2   17 1
   7    3    4 1
   8    3   18 1
   9    3   19 1
  10    4    5 3
  11    5   20 1
  12    7    8 1
  13    7    9 1
  14    8   21 1
  15    8   22 1
  16    8   23 1
  17    9   10 ar
  18    9   14 ar
  19   10   11 ar
  20   10   24 1
  21   11   12 ar
  22   11   25 1
  23   12   13 ar
  24   12   15 1
  25   13   14 ar
  26   13   26 1
  27   14   27 1

#	End of record

