#	Name: ASD01028161
#	Creating user name:	WinNT
#	Creation time:	15. 06. 2019 18:56

#	Modifying user name:	WinNT
#	Modification time:	15. 06. 2019 18:56

#	Program:	/corina/corina34_cracker 3.40 0067  02.08.2006

@<TRIPOS>MOLECULE
ASD01028161
  50   53    0    0    0
SMALL
NO_CHARGES


@<TRIPOS>ATOM
   1 C1            -0.1628     1.1185    -0.3756 C.ar    
   2 C2             0.1022    -0.2481    -0.1798 C.ar    
   3 C3             1.4270    -0.6569     0.0110 C.ar    
   4 C4             2.4205     0.3062    -0.0018 C.ar    
   5 C5             2.0814     1.6325    -0.2005 C.ar    
   6 N6             0.8268     1.9980    -0.3785 N.ar    
   7 C7            -0.9950    -1.2323    -0.1750 C.2     
   8 O8            -2.1500    -0.8555    -0.2305 O.2     
   9 N9            -0.7184    -2.5497    -0.1091 N.am    
  10 N10           -1.4631     1.5456    -0.5719 N.pl3   
  11 C11           -1.7591     2.9780    -0.6539 C.3     
  12 C12           -5.4512     3.4777    -0.0275 C.ar    
  13 C13           -4.1012     3.2992     0.2085 C.ar    
  14 C14           -3.2377     3.1740    -0.8690 C.ar    
  15 C15           -3.7669     3.2337    -2.1492 C.ar    
  16 C16           -5.1279     3.4148    -2.3075 C.ar    
  17 N17           -5.9195     3.5297    -1.2591 N.ar    
  18 O18           -2.7614    -6.9175    -0.9738 O.3     
  19 C19           -4.1399    -7.3252    -0.9878 C.3     
  20 C20           -4.7550    -6.4945     0.1633 C.3     
  21 C21           -3.8167    -5.3045     0.2266 C.ar    
  22 C22           -2.6719    -5.6515    -0.4812 C.ar    
  23 C23           -1.6410    -4.7237    -0.5910 C.ar    
  24 C24           -1.7583    -3.4777     0.0050 C.ar    
  25 C25           -2.9055    -3.1484     0.7155 C.ar    
  26 C26           -3.9325    -4.0678     0.8226 C.ar    
  27 C27           -6.1780    -6.0511    -0.1822 C.3     
  28 C28           -4.7325    -7.2792     1.4765 C.3     
  29 H29            1.6680    -1.6984     0.1647 H       
  30 H30            3.4531     0.0245     0.1428 H       
  31 H31            2.8584     2.3825    -0.2097 H       
  32 H32            0.2021    -2.8541    -0.1407 H       
  33 H33           -2.1793     0.8968    -0.6553 H       
  34 H34           -1.4593     3.4647     0.2741 H       
  35 H35           -1.2096     3.4154    -1.4875 H       
  36 H36           -6.1310     3.5717     0.8064 H       
  37 H37           -3.7236     3.2578     1.2195 H       
  38 H38           -3.1237     3.1402    -3.0117 H       
  39 H39           -5.5480     3.4624    -3.3013 H       
  40 H40           -4.6076    -7.0722    -1.9393 H       
  41 H41           -4.2290    -8.3923    -0.7842 H       
  42 H42           -0.7469    -4.9750    -1.1421 H       
  43 H43           -2.9947    -2.1786     1.1826 H       
  44 H44           -4.8266    -3.8162     1.3737 H       
  45 H45           -6.8072    -6.9293    -0.3265 H       
  46 H46           -6.5782    -5.4473     0.6323 H       
  47 H47           -6.1623    -5.4608    -1.0984 H       
  48 H48           -3.7050    -7.5484     1.7213 H       
  49 H49           -5.1467    -6.6634     2.2748 H       
  50 H50           -5.3296    -8.1847     1.3690 H       
@<TRIPOS>BOND
   1    1    2 ar
   2    1    6 ar
   3    1   10 1
   4    2    3 ar
   5    2    7 1
   6    3    4 ar
   7    3   29 1
   8    4    5 ar
   9    4   30 1
  10    5    6 ar
  11    5   31 1
  12    7    8 2
  13    7    9 am
  14    9   24 1
  15    9   32 1
  16   10   11 1
  17   10   33 1
  18   11   14 1
  19   11   34 1
  20   11   35 1
  21   12   13 ar
  22   12   17 ar
  23   12   36 1
  24   13   14 ar
  25   13   37 1
  26   14   15 ar
  27   15   16 ar
  28   15   38 1
  29   16   17 ar
  30   16   39 1
  31   18   19 1
  32   18   22 1
  33   19   20 1
  34   19   40 1
  35   19   41 1
  36   20   21 1
  37   20   27 1
  38   20   28 1
  39   21   22 ar
  40   21   26 ar
  41   22   23 ar
  42   23   24 ar
  43   23   42 1
  44   24   25 ar
  45   25   26 ar
  46   25   43 1
  47   26   44 1
  48   27   45 1
  49   27   46 1
  50   27   47 1
  51   28   48 1
  52   28   49 1
  53   28   50 1

#	End of record

