#	Name: ASD01870362
#	Creating user name:	WinNT
#	Creation time:	15. 06. 2019 19:39

#	Modifying user name:	WinNT
#	Modification time:	15. 06. 2019 19:39

#	Program:	/corina/corina34_cracker 3.40 0067  02.08.2006

@<TRIPOS>MOLECULE
ASD01870362
  54   58    0    0    0
SMALL
NO_CHARGES


@<TRIPOS>ATOM
   1 N1            -0.0179     1.4666     0.0101 N.am    
   2 C2             0.0021    -0.0041     0.0020 C.3     
   3 C3             1.1293     2.1740     0.0030 C.2     
   4 C4             1.0857     3.6803     0.0115 C.3     
   5 O5             2.1967     1.5983    -0.0103 O.2     
   6 C6             2.4763     4.3407     0.0017 C.3     
   7 N7             1.9076     5.2908    -0.9739 N.am    
   8 C8             0.8907     4.3026    -1.3830 C.3     
   9 S9             2.2664     6.8425    -1.4275 S.o2    
  10 C10            3.4250     6.7442    -2.7514 C.ar    
  11 C11            4.7024     6.2084    -2.5342 C.ar    
  12 O12            1.0740     7.3858    -1.9773 O.2     
  13 O13            2.9563     7.4310    -0.3334 O.2     
  14 C14            3.0848     7.1831    -3.9954 C.ar    
  15 C15            3.9884     7.1119    -5.0539 C.ar    
  16 C16            5.2389     6.6017    -4.8776 C.ar    
  17 C17            5.6234     6.1360    -3.6110 C.ar    
  18 C18           -0.8911    -0.5093     1.1401 C.3     
  19 N19           -2.2246     0.0945     1.0166 N.3     
  20 C20           -2.1639     1.5549     1.1634 C.3     
  21 C21           -1.3229     2.1448     0.0200 C.3     
  22 C22           -3.1111    -0.4624     1.9335 C.ar    
  23 C23           -4.4382    -0.0378     1.9944 C.ar    
  24 C24           -2.6971    -1.4639     2.8116 C.ar    
  25 C25           -3.6064    -1.9896     3.7049 C.ar    
  26 N26           -4.8531    -1.5568     3.7352 N.ar    
  27 C27           -5.2847    -0.6150     2.9173 C.ar    
  28 C28            6.9001     5.5993    -3.3689 C.ar    
  29 N29            7.2139     5.1760    -2.1656 N.ar    
  30 C30            6.3703     5.2293    -1.1435 C.ar    
  31 C31            5.1126     5.7339    -1.2744 C.ar    
  32 Cl32           8.0590     5.4959    -4.6572 Cl      
  33 H33           -0.3779    -0.3702    -0.9518 H       
  34 H34            1.0222    -0.3573     0.1528 H       
  35 H35            0.4145     4.0817     0.7708 H       
  36 H36            2.7518     4.7987     0.9517 H       
  37 H37            3.2612     3.7060    -0.4094 H       
  38 H38            1.2098     3.6567    -2.2009 H       
  39 H39           -0.0998     4.7302    -1.5387 H       
  40 H40            2.0995     7.5921    -4.1640 H       
  41 H41            3.6922     7.4667    -6.0300 H       
  42 H42            5.9281     6.5523    -5.7076 H       
  43 H43           -0.9763    -1.5943     1.0813 H       
  44 H44           -0.4526    -0.2298     2.0981 H       
  45 H45           -3.1722     1.9669     1.1215 H       
  46 H46           -1.7077     1.8056     2.1210 H       
  47 H47           -1.1778     3.2123     0.1853 H       
  48 H48           -1.8328     1.9844    -0.9299 H       
  49 H49           -4.7978     0.7326     1.3283 H       
  50 H50           -1.6786    -1.8228     2.7918 H       
  51 H51           -3.2948    -2.7657     4.3883 H       
  52 H52           -6.3128    -0.2892     2.9747 H       
  53 H53            6.6910     4.8638    -0.1792 H       
  54 H54            4.4422     5.7676    -0.4283 H       
@<TRIPOS>BOND
   1    1    2 1
   2    1    3 am
   3    1   21 1
   4    2   18 1
   5    2   33 1
   6    2   34 1
   7    3    4 1
   8    3    5 2
   9    4    6 1
  10    4    8 1
  11    4   35 1
  12    6    7 1
  13    6   36 1
  14    6   37 1
  15    7    8 1
  16    7    9 am
  17    8   38 1
  18    8   39 1
  19    9   10 1
  20    9   12 2
  21    9   13 2
  22   10   14 ar
  23   10   11 ar
  24   11   17 ar
  25   11   31 ar
  26   14   15 ar
  27   14   40 1
  28   15   16 ar
  29   15   41 1
  30   16   17 ar
  31   16   42 1
  32   17   28 ar
  33   18   19 1
  34   18   43 1
  35   18   44 1
  36   19   20 1
  37   19   22 1
  38   20   21 1
  39   20   45 1
  40   20   46 1
  41   21   47 1
  42   21   48 1
  43   22   23 ar
  44   22   24 ar
  45   23   27 ar
  46   23   49 1
  47   24   25 ar
  48   24   50 1
  49   25   26 ar
  50   25   51 1
  51   26   27 ar
  52   27   52 1
  53   28   29 ar
  54   28   32 1
  55   29   30 ar
  56   30   31 ar
  57   30   53 1
  58   31   54 1

#	End of record

