#	Name: ASD01120166
#	Creating user name:	WinNT
#	Creation time:	15. 06. 2019 18:59

#	Modifying user name:	WinNT
#	Modification time:	15. 06. 2019 18:59

#	Program:	/corina/corina34_cracker 3.40 0067  02.08.2006

@<TRIPOS>MOLECULE
ASD01120166
  38   40    0    0    0
SMALL
NO_CHARGES


@<TRIPOS>ATOM
   1 C1            -0.0326     1.3700    -0.0268 C.ar    
   2 C2            -0.0196    -0.0280     0.0744 C.ar    
   3 C3            -1.1949    -0.7352     0.1994 C.ar    
   4 C4            -2.4143    -0.0477     0.2254 C.ar    
   5 C5            -2.4195     1.3655     0.1227 C.ar    
   6 C6            -1.2106     2.0611     0.0020 C.ar    
   7 N7            -3.5870    -0.6898     0.3451 N.ar    
   8 C8            -4.7137    -0.0184     0.3661 C.ar    
   9 N9            -4.7674     1.3008     0.2732 N.ar    
  10 C10           -3.6674     2.0325     0.1515 C.ar    
  11 C11           -5.1753     5.2833     0.5552 C.ar    
  12 C12           -4.9834     4.0395    -0.0342 C.ar    
  13 C13           -6.0247     3.4245    -0.7121 C.ar    
  14 C14           -7.2639     4.0573    -0.7999 C.ar    
  15 C15           -7.4482     5.3080    -0.2037 C.ar    
  16 C16           -6.4032     5.9121     0.4697 C.ar    
  17 N17           -3.7383     3.4077     0.0561 N.pl3   
  18 C18           -8.3440     3.4284    -1.4989 C.1     
  19 O19            1.1650    -0.6926     0.0484 O.3     
  20 O20            1.1408     2.0462    -0.1495 O.3     
  21 C21            1.1124    -2.1166     0.1556 C.3     
  22 C22            1.0620     3.4696    -0.2485 C.3     
  23 F23           -8.6466     5.9261    -0.2859 F       
  24 C24           -9.2295     2.9128    -2.0719 C.1     
  25 H25           -1.1761    -1.8123     0.2765 H       
  26 H26           -1.2098     3.1382    -0.0766 H       
  27 H27           -5.6391    -0.5667     0.4633 H       
  28 H28           -4.3634     5.7581     1.0861 H       
  29 H29           -5.8763     2.4582    -1.1711 H       
  30 H30           -6.5465     6.8783     0.9304 H       
  31 H31           -2.9248     3.9361     0.0516 H       
  32 H32            0.6423    -2.3928     1.0994 H       
  33 H33            0.5309    -2.5221    -0.6723 H       
  34 H34            2.1240    -2.5211     0.1215 H       
  35 H35            0.4746     3.7409    -1.1256 H       
  36 H36            0.5853     3.8702     0.6462 H       
  37 H37            2.0661     3.8835    -0.3414 H       
  38 H38          -10.0214     2.4516    -2.5844 H       
@<TRIPOS>BOND
   1    1    2 ar
   2    1   20 1
   3    1    6 ar
   4    2    3 ar
   5    2   19 1
   6    3    4 ar
   7    3   25 1
   8    4    5 ar
   9    4    7 ar
  10    5    6 ar
  11    5   10 ar
  12    6   26 1
  13    7    8 ar
  14    8    9 ar
  15    8   27 1
  16    9   10 ar
  17   10   17 1
  18   11   12 ar
  19   11   16 ar
  20   11   28 1
  21   12   13 ar
  22   12   17 1
  23   13   14 ar
  24   13   29 1
  25   14   15 ar
  26   14   18 1
  27   15   16 ar
  28   15   23 1
  29   16   30 1
  30   17   31 1
  31   18   24 3
  32   19   21 1
  33   20   22 1
  34   21   32 1
  35   21   33 1
  36   21   34 1
  37   22   35 1
  38   22   36 1
  39   22   37 1
  40   24   38 1

#	End of record

