#	Name: ASD01840106
#	Creating user name:	WinNT
#	Creation time:	15. 06. 2019 19:37

#	Modifying user name:	WinNT
#	Modification time:	15. 06. 2019 19:37

#	Program:	/corina/corina34_cracker 3.40 0067  02.08.2006

@<TRIPOS>MOLECULE
ASD01840106
  48   51    0    0    0
SMALL
NO_CHARGES


@<TRIPOS>ATOM
   1 N1             1.3076    -0.7158    -0.2177 N.ar    
   2 C2             0.1642    -0.1774    -0.5934 C.ar    
   3 C3             0.0563     1.1849    -0.8032 C.ar    
   4 C4             1.1687     1.9885    -0.6141 C.ar    
   5 C5             2.3591     1.3872    -0.2175 C.ar    
   6 C6             2.3891     0.0136    -0.0270 C.ar    
   7 C7            -1.0411    -1.0588    -0.7974 C.3     
   8 O8             3.4766     2.1350    -0.0197 O.3     
   9 C9             3.3346     3.5533    -0.1217 C.3     
  10 C10            4.4280     4.2377     0.7033 C.3     
  11 C11            4.3082     5.7548     0.5413 C.3     
  12 N12            4.4459     6.1093    -0.8770 N.3     
  13 C13            3.3787     5.5018    -1.6823 C.3     
  14 C14            3.4708     3.9771    -1.5867 C.3     
  15 C15            4.4729     7.4857    -1.0449 C.ar    
  16 C16            5.5888     8.1277    -1.6330 C.ar    
  17 C17            5.5684     9.5349    -1.7831 C.ar    
  18 N18            4.5053    10.2352    -1.3711 N.ar    
  19 C19            3.4648     9.6511    -0.8239 C.ar    
  20 C20            3.4055     8.2755    -0.6475 C.ar    
  21 C21            6.7052     7.3987    -2.0653 C.ar    
  22 C22            7.7620     8.0538    -2.6271 C.ar    
  23 C23            7.7442     9.4405    -2.7762 C.ar    
  24 C24            6.6748    10.1761    -2.3667 C.ar    
  25 F25            8.8382     7.3513    -3.0434 F       
  26 C26            2.2993    10.4971    -0.3804 C.3     
  27 H27           -0.8842     1.6174    -1.1113 H       
  28 H28            1.1134     3.0556    -0.7711 H       
  29 H29            3.3078    -0.4633     0.2812 H       
  30 H30           -1.5938    -1.1407     0.1384 H       
  31 H31           -1.6841    -0.6236    -1.5623 H       
  32 H32           -0.7169    -2.0495    -1.1158 H       
  33 H33            2.3553     3.8493     0.2546 H       
  34 H34            4.3101     3.9735     1.7542 H       
  35 H35            5.4069     3.9105     0.3527 H       
  36 H36            3.3344     6.0830     0.9048 H       
  37 H37            5.0942     6.2446     1.1161 H       
  38 H38            2.4093     5.8312    -1.3084 H       
  39 H39            3.4896     5.8078    -2.7225 H       
  40 H40            4.4346     3.6459    -1.9733 H       
  41 H41            2.6691     3.5267    -2.1719 H       
  42 H42            2.5337     7.8232    -0.1984 H       
  43 H43            6.7289     6.3247    -1.9541 H       
  44 H44            8.5918     9.9381    -3.2237 H       
  45 H45            6.6766    11.2491    -2.4891 H       
  46 H46            1.5891    10.5963    -1.2014 H       
  47 H47            1.8084    10.0226     0.4693 H       
  48 H48            2.6572    11.4844    -0.0884 H       
@<TRIPOS>BOND
   1    1    2 ar
   2    1    6 ar
   3    2    3 ar
   4    2    7 1
   5    3    4 ar
   6    3   27 1
   7    4    5 ar
   8    4   28 1
   9    5    6 ar
  10    5    8 1
  11    6   29 1
  12    7   30 1
  13    7   31 1
  14    7   32 1
  15    8    9 1
  16    9   10 1
  17    9   14 1
  18    9   33 1
  19   10   11 1
  20   10   34 1
  21   10   35 1
  22   11   12 1
  23   11   36 1
  24   11   37 1
  25   12   13 1
  26   12   15 1
  27   13   14 1
  28   13   38 1
  29   13   39 1
  30   14   40 1
  31   14   41 1
  32   15   16 ar
  33   15   20 ar
  34   16   17 ar
  35   16   21 ar
  36   17   18 ar
  37   17   24 ar
  38   18   19 ar
  39   19   20 ar
  40   19   26 1
  41   20   42 1
  42   21   22 ar
  43   21   43 1
  44   22   23 ar
  45   22   25 1
  46   23   24 ar
  47   23   44 1
  48   24   45 1
  49   26   46 1
  50   26   47 1
  51   26   48 1

#	End of record

