#	Name: ASD00069171
#	Creating user name:	WinNT
#	Creation time:	15. 06. 2019 18:29

#	Modifying user name:	WinNT
#	Modification time:	15. 06. 2019 18:29

#	Program:	/corina/corina34_cracker 3.40 0067  02.08.2006

@<TRIPOS>MOLECULE
ASD00069171
  56   59    0    0    0
SMALL
NO_CHARGES


@<TRIPOS>ATOM
   1 C1            -0.0089     1.4278    -0.4102 C.ar    
   2 N2             0.0197     0.2748    -1.0550 N.ar    
   3 C3             1.1762    -0.3221    -1.3393 C.ar    
   4 C4             2.3652     0.2860    -0.9470 C.ar    
   5 C5             2.2925     1.5069    -0.2661 C.ar    
   6 N6             1.0978     2.0381    -0.0202 N.ar    
   7 C7             1.1965    -1.6176    -2.0637 C.2     
   8 O8             2.2561    -2.1544    -2.3185 O.2     
   9 N9             0.0395    -2.1982    -2.4386 N.am    
  10 O10           -1.2060     2.0041    -0.1458 O.3     
  11 C11            5.6169     2.6347     0.5105 C.2     
  12 N12            4.7822     1.7658    -0.0126 N.2     
  13 C13            3.5276     2.1969     0.1746 C.2     
  14 C14            3.5904     3.3967     0.8497 C.2     
  15 N15            4.8986     3.6629     1.0555 N.pl3   
  16 C16            7.0869     2.5175     0.5150 C.2     
  17 O17            7.7646     3.3858     1.0308 O.2     
  18 N18            7.6795     1.4483    -0.0525 N.am    
  19 C19            9.0751     1.3929    -0.1539 C.ar    
  20 C20            9.7353     0.1691    -0.0521 C.ar    
  21 C21           11.1193     0.1213    -0.1540 C.ar    
  22 C22           11.8382     1.2868    -0.3562 C.ar    
  23 C23           11.1819     2.4997    -0.4566 C.ar    
  24 C24            9.8039     2.5549    -0.3618 C.ar    
  25 F25           11.7638    -1.0619    -0.0555 F       
  26 N26            9.0049    -1.0084     0.1530 N.3     
  27 C27            9.2209    -1.9596    -0.9447 C.3     
  28 C28            8.2999    -3.1682    -0.7629 C.3     
  29 C29            8.6009    -3.8353     0.5821 C.3     
  30 C30            8.4153    -2.8102     1.7043 C.3     
  31 C31            9.3329    -1.6119     1.4509 C.3     
  32 C32            7.6420    -5.0080     0.7971 C.3     
  33 N33            8.0079    -5.7202     2.0288 N.3     
  34 H34            3.3192    -0.1725    -1.1621 H       
  35 H35           -0.8065    -1.7696    -2.2351 H       
  36 H36            0.0528    -3.0448    -2.9120 H       
  37 H37           -1.5913     1.7400     0.7009 H       
  38 H38            2.7538     4.0074     1.1555 H       
  39 H39            5.2619     4.4405     1.5074 H       
  40 H40            7.1392     0.7170    -0.3907 H       
  41 H41           12.9146     1.2487    -0.4354 H       
  42 H42           11.7474     3.4063    -0.6139 H       
  43 H43            9.2948     3.5037    -0.4452 H       
  44 H44            8.9993    -1.4739    -1.8950 H       
  45 H45           10.2595    -2.2903    -0.9396 H       
  46 H46            7.2607    -2.8399    -0.7817 H       
  47 H47            8.4716    -3.8812    -1.5692 H       
  48 H48            9.6286    -4.1983     0.5867 H       
  49 H49            7.3779    -2.4762     1.7242 H       
  50 H50            8.6695    -3.2674     2.6605 H       
  51 H51           10.3710    -1.9443     1.4448 H       
  52 H52            9.1927    -0.8737     2.2405 H       
  53 H53            6.6224    -4.6325     0.8838 H       
  54 H54            7.7070    -5.6905    -0.0502 H       
  55 H55            7.3889    -6.4998     2.1931 H       
  56 H56            8.9701    -6.0224     1.9994 H       
@<TRIPOS>BOND
   1    1    2 ar
   2    1    6 ar
   3    1   10 1
   4    2    3 ar
   5    3    4 ar
   6    3    7 1
   7    4    5 ar
   8    4   34 1
   9    5    6 ar
  10    5   13 1
  11    7    8 2
  12    7    9 am
  13    9   35 1
  14    9   36 1
  15   10   37 1
  16   11   12 2
  17   11   15 1
  18   11   16 1
  19   12   13 1
  20   13   14 2
  21   14   15 1
  22   14   38 1
  23   15   39 1
  24   16   17 2
  25   16   18 am
  26   18   19 1
  27   18   40 1
  28   19   20 ar
  29   19   24 ar
  30   20   21 ar
  31   20   26 1
  32   21   22 ar
  33   21   25 1
  34   22   23 ar
  35   22   41 1
  36   23   24 ar
  37   23   42 1
  38   24   43 1
  39   26   27 1
  40   26   31 1
  41   27   28 1
  42   27   44 1
  43   27   45 1
  44   28   29 1
  45   28   46 1
  46   28   47 1
  47   29   30 1
  48   29   32 1
  49   29   48 1
  50   30   31 1
  51   30   49 1
  52   30   50 1
  53   31   51 1
  54   31   52 1
  55   32   33 1
  56   32   53 1
  57   32   54 1
  58   33   55 1
  59   33   56 1

#	End of record

