#	Name: ASD01420143
#	Creating user name:	WinNT
#	Creation time:	15. 06. 2019 19:20

#	Modifying user name:	WinNT
#	Modification time:	15. 06. 2019 19:20

#	Program:	/corina/corina34_cracker 3.40 0067  02.08.2006

@<TRIPOS>MOLECULE
ASD01420143
  77   80    0    0    0
SMALL
NO_CHARGES


@<TRIPOS>ATOM
   1 C1             1.7908     1.3996     1.0291 C.ar    
   2 C2             1.8133     0.0184     1.0240 C.ar    
   3 C3             1.2128    -0.6801    -0.0134 C.ar    
   4 C4             0.5911     0.0109    -1.0433 C.ar    
   5 C5             0.5714     1.3921    -1.0336 C.ar    
   6 C6             1.1706     2.0859     0.0015 C.ar    
   7 C7             1.1472     3.5927     0.0099 C.3     
   8 C8             2.5557     4.1164     0.1232 C.ar    
   9 C9             0.5173     4.1002    -1.2888 C.3     
  10 C10            0.3232     4.0834     1.2020 C.3     
  11 C11            3.5142     3.7226    -0.7922 C.ar    
  12 C12            2.8860     4.9943     1.1390 C.ar    
  13 C13            4.1763     5.4762     1.2448 C.ar    
  14 C14            5.1412     5.0784     0.3306 C.ar    
  15 C15            4.8059     4.2015    -0.6908 C.ar    
  16 O16            6.4113     5.5510     0.4326 O.3     
  17 C17            7.3520     5.0986    -0.5433 C.3     
  18 C18            8.7170     5.7328    -0.2682 C.3     
  19 C19            9.7523     5.1541    -1.2347 C.3     
  20 O20            8.6310     7.1472    -0.4532 O.3     
  21 N21           11.0839     5.6723    -0.8937 N.3     
  22 O22            1.2339    -2.0389    -0.0209 O.3     
  23 C23            0.5958    -2.6916    -1.1204 C.3     
  24 C24            0.7214    -4.2076    -0.9563 C.3     
  25 C25           -0.0673    -4.9076    -2.0648 C.3     
  26 O26            2.0975    -4.5834    -1.0405 O.3     
  27 N27           -0.0463    -6.3590    -1.8390 N.3     
  28 C28           -0.7955    -7.0657    -2.8865 C.3     
  29 C29           12.1059     5.1368    -1.8029 C.3     
  30 C30           -0.7518    -8.5486    -2.6219 C.2     
  31 O31            0.1797    -9.4010    -3.0795 O.3     
  32 C32           -0.0976   -10.6419    -2.6469 C.2     
  33 C33           -1.2174   -10.5924    -1.9033 C.2     
  34 C34           -1.6359    -9.2421    -1.8823 C.2     
  35 C35           13.4555     5.6893    -1.4229 C.2     
  36 O36           14.0004     6.8234    -1.8925 O.3     
  37 C37           14.3162     5.1332    -0.5516 C.2     
  38 C38           15.4480     5.9788    -0.4976 C.2     
  39 C39           15.2096     7.0030    -1.3364 C.2     
  40 H40            2.2543     1.9438     1.8388 H       
  41 H41            2.2982    -0.5173     1.8267 H       
  42 H42            0.1232    -0.5306    -1.8522 H       
  43 H43            0.0876     1.9305    -1.8351 H       
  44 H44           -0.5015     3.7215    -1.3708 H       
  45 H45            0.5004     5.1901    -1.2828 H       
  46 H46            1.1043     3.7507    -2.1382 H       
  47 H47            0.7719     3.7218     2.1273 H       
  48 H48            0.3063     5.1732     1.2081 H       
  49 H49           -0.6956     3.7046     1.1201 H       
  50 H50            3.2528     3.0396    -1.5870 H       
  51 H51            2.1345     5.3039     1.8502 H       
  52 H52            4.4338     6.1622     2.0382 H       
  53 H53            5.5543     3.8933    -1.4059 H       
  54 H54            7.4381     4.0134    -0.4893 H       
  55 H55            7.0112     5.3870    -1.5377 H       
  56 H56            9.0174     5.5181     0.7573 H       
  57 H57            9.7545     4.0669    -1.1566 H       
  58 H58            9.4996     5.4446    -2.2545 H       
  59 H59            8.3679     7.4120    -1.3452 H       
  60 H60           11.0908     6.6813    -0.8960 H       
  61 H61           -0.4583    -2.4149    -1.1452 H       
  62 H62            1.0736    -2.3861    -2.0513 H       
  63 H63            0.3230    -4.5021     0.0146 H       
  64 H64           -1.0981    -4.5535    -2.0566 H       
  65 H65            0.3861    -4.6836    -3.0304 H       
  66 H66            2.5179    -4.3515    -1.8799 H       
  67 H67            0.9007    -6.7018    -1.7780 H       
  68 H68           -1.8314    -6.7265    -2.8840 H       
  69 H69           -0.3471    -6.8566    -3.8578 H       
  70 H70           12.1244     4.0494    -1.7287 H       
  71 H71           11.8696     5.4271    -2.8266 H       
  72 H72            0.4803   -11.5290    -2.8602 H       
  73 H73           -1.7018   -11.4240    -1.4132 H       
  74 H74           -2.5028    -8.8447    -1.3755 H       
  75 H75           14.1705     4.2168     0.0011 H       
  76 H76           16.3327     5.8324     0.1043 H       
  77 H77           15.8765     7.8306    -1.5283 H       
@<TRIPOS>BOND
   1    1    2 ar
   2    1    6 ar
   3    1   40 1
   4    2    3 ar
   5    2   41 1
   6    3    4 ar
   7    3   22 1
   8    4    5 ar
   9    4   42 1
  10    5    6 ar
  11    5   43 1
  12    6    7 1
  13    7    8 1
  14    7    9 1
  15    7   10 1
  16    8   12 ar
  17    8   11 ar
  18    9   44 1
  19    9   45 1
  20    9   46 1
  21   10   47 1
  22   10   48 1
  23   10   49 1
  24   11   15 ar
  25   11   50 1
  26   12   13 ar
  27   12   51 1
  28   13   14 ar
  29   13   52 1
  30   14   15 ar
  31   14   16 1
  32   15   53 1
  33   16   17 1
  34   17   18 1
  35   17   54 1
  36   17   55 1
  37   18   19 1
  38   18   20 1
  39   18   56 1
  40   19   21 1
  41   19   57 1
  42   19   58 1
  43   20   59 1
  44   21   29 1
  45   21   60 1
  46   22   23 1
  47   23   24 1
  48   23   61 1
  49   23   62 1
  50   24   25 1
  51   24   26 1
  52   24   63 1
  53   25   27 1
  54   25   64 1
  55   25   65 1
  56   26   66 1
  57   27   28 1
  58   27   67 1
  59   28   30 1
  60   28   68 1
  61   28   69 1
  62   29   35 1
  63   29   70 1
  64   29   71 1
  65   30   31 1
  66   30   34 2
  67   31   32 1
  68   32   33 2
  69   32   72 1
  70   33   34 1
  71   33   73 1
  72   34   74 1
  73   35   37 2
  74   35   36 1
  75   36   39 1
  76   37   38 1
  77   37   75 1
  78   38   39 2
  79   38   76 1
  80   39   77 1

#	End of record

