#	Name: ASD01913073
#	Creating user name:	WinNT
#	Creation time:	15. 06. 2019 20:00

#	Modifying user name:	WinNT
#	Modification time:	15. 06. 2019 20:00

#	Program:	/corina/corina34_cracker 3.40 0067  02.08.2006

@<TRIPOS>MOLECULE
ASD01913073
  32   33    0    0    0
SMALL
NO_CHARGES


@<TRIPOS>ATOM
   1 N1            -0.0169     1.3965     0.0097 N.2     
   2 N2             0.0021    -0.0041     0.0020 N.pl3   
   3 C3             1.2284     1.8226     0.0001 C.2     
   4 C4             2.0723     0.6949    -0.0140 C.2     
   5 C5             1.2908    -0.4070    -0.0125 C.2     
   6 C6             1.7726    -1.8349    -0.0240 C.3     
   7 C7             1.6661     3.2407     0.0031 C.ar    
   8 C8             0.8236    -2.7001     0.8077 C.3     
   9 C9             1.8036    -2.3511    -1.4639 C.3     
  10 C10            0.7196     4.2634     0.0177 C.ar    
  11 C11            1.1293     5.5803     0.0209 C.ar    
  12 C12            2.4830     5.8875     0.0097 C.ar    
  13 C13            3.4281     4.8709    -0.0053 C.ar    
  14 C14            3.0244     3.5521    -0.0028 C.ar    
  15 O15            2.8837     7.1860     0.0129 O.3     
  16 C16            4.2916     7.4304     0.0008 C.3     
  17 H17           -0.7755    -0.5839     0.0068 H       
  18 H18            3.1521     0.7088    -0.0248 H       
  19 H19            2.7752    -1.8835     0.4011 H       
  20 H20            1.1721    -3.7328     0.7994 H       
  21 H21            0.8016    -2.3323     1.8336 H       
  22 H22           -0.1790    -2.6514     0.3827 H       
  23 H23            2.4797    -1.7347    -2.0564 H       
  24 H24            2.1520    -3.3838    -1.4722 H       
  25 H25            0.8010    -2.3025    -1.8889 H       
  26 H26           -0.3337     4.0249     0.0261 H       
  27 H27            0.3962     6.3733     0.0319 H       
  28 H28            4.4806     5.1128    -0.0144 H       
  29 H29            3.7601     2.7615    -0.0145 H       
  30 H30            4.7290     6.9912    -0.8958 H       
  31 H31            4.4739     8.5051     0.0049 H       
  32 H32            4.7460     6.9815     0.8840 H       
@<TRIPOS>BOND
   1    1    2 1
   2    1    3 2
   3    2    5 1
   4    2   17 1
   5    3    4 1
   6    3    7 1
   7    4    5 2
   8    4   18 1
   9    5    6 1
  10    6    8 1
  11    6    9 1
  12    6   19 1
  13    7   10 ar
  14    7   14 ar
  15    8   20 1
  16    8   21 1
  17    8   22 1
  18    9   23 1
  19    9   24 1
  20    9   25 1
  21   10   11 ar
  22   10   26 1
  23   11   12 ar
  24   11   27 1
  25   12   13 ar
  26   12   15 1
  27   13   14 ar
  28   13   28 1
  29   14   29 1
  30   15   16 1
  31   16   30 1
  32   16   31 1
  33   16   32 1

#	End of record

