#	Name: ASD00451023
#	Creating user name:	WinNT
#	Creation time:	15. 06. 2019 18:36

#	Modifying user name:	WinNT
#	Modification time:	15. 06. 2019 18:36

#	Program:	/corina/corina34_cracker 3.40 0067  02.08.2006

@<TRIPOS>MOLECULE
ASD00451023
  46   49    0    0    0
SMALL
NO_CHARGES


@<TRIPOS>ATOM
   1 C1             0.0062     1.4639    -0.1647 C.ar    
   2 C2             0.0310     0.0785    -0.2339 C.ar    
   3 N3             1.2078     2.1869    -0.1396 N.am    
   4 C4            -1.2109     2.1357    -0.1260 C.ar    
   5 C5            -1.1527    -0.6335    -0.2585 C.ar    
   6 C6             2.2884     1.6764     0.4834 C.2     
   7 C7            -2.3943     1.4220    -0.1566 C.ar    
   8 C8            -2.3669     0.0357    -0.2142 C.ar    
   9 O9             2.1958     0.6373     1.1081 O.2     
  10 N10            3.4718     2.3178     0.4140 N.am    
  11 O11           -3.5309    -0.6661    -0.2447 O.3     
  12 C12            4.5611     1.8591     1.1631 C.ar    
  13 C13           -3.9211    -1.3032     0.8892 C.ar    
  14 C14            5.8573     2.1137     0.7328 C.ar    
  15 C15            4.3478     1.1548     2.3391 C.ar    
  16 C16           -5.1474    -1.9597     0.9558 C.ar    
  17 C17           -3.1034    -1.3234     2.0169 C.ar    
  18 C18            6.9340     1.6617     1.4719 C.ar    
  19 C19            5.4312     0.7019     3.0796 C.ar    
  20 N20           -6.1893    -2.1465     0.0496 N.am    
  21 C21           -5.5145    -2.6039     2.1375 C.ar    
  22 C22           -3.5345    -1.9819     3.1509 C.ar    
  23 C23            6.7259     0.9557     2.6404 C.ar    
  24 C24           -7.1474    -2.8732     0.6562 C.2     
  25 N25           -6.7690    -3.1583     1.9160 N.am    
  26 N26           -4.7046    -2.5910     3.1855 N.ar    
  27 O27           -8.1980    -3.2141     0.1455 O.2     
  28 H28            1.2610     3.0542    -0.5706 H       
  29 H29            3.5683     3.0973    -0.1552 H       
  30 H30           -6.2194    -1.8114    -0.8602 H       
  31 H31           -7.2834    -3.6703     2.5596 H       
  32 F32           -1.2366     3.4847    -0.0582 F       
  33 S33            5.1662    -0.1928     4.5742 S.3     
  34 C34            6.8521    -0.5470     5.1423 C.3     
  35 F35            7.5366     0.6554     5.3495 F       
  36 F36            6.7988    -1.2659     6.3413 F       
  37 F37            7.5211    -1.3036     4.1742 F       
  38 H38            0.9758    -0.4435    -0.2688 H       
  39 H39           -1.1327    -1.7120    -0.3128 H       
  40 H40           -3.3400     1.9427    -0.1263 H       
  41 H41            6.0237     2.6653    -0.1807 H       
  42 H42            3.3411     0.9595     2.6779 H       
  43 H43           -2.1429    -0.8298     2.0039 H       
  44 H44            7.9406     1.8609     1.1347 H       
  45 H45           -2.9022    -1.9990     4.0264 H       
  46 H46            7.5695     0.6035     3.2155 H       
@<TRIPOS>BOND
   1    1    2 ar
   2    1    3 1
   3    1    4 ar
   4    2    5 ar
   5    2   38 1
   6    3   28 1
   7    3    6 am
   8    4   32 1
   9    4    7 ar
  10    5    8 ar
  11    5   39 1
  12    6    9 2
  13    6   10 am
  14    7    8 ar
  15    7   40 1
  16    8   11 1
  17   10   12 1
  18   10   29 1
  19   11   13 1
  20   12   14 ar
  21   12   15 ar
  22   13   16 ar
  23   13   17 ar
  24   14   18 ar
  25   14   41 1
  26   15   19 ar
  27   15   42 1
  28   16   20 1
  29   16   21 ar
  30   17   22 ar
  31   17   43 1
  32   18   23 ar
  33   18   44 1
  34   19   23 ar
  35   19   33 1
  36   20   30 1
  37   20   24 am
  38   21   26 ar
  39   21   25 1
  40   22   26 ar
  41   22   45 1
  42   23   46 1
  43   24   25 am
  44   24   27 2
  45   25   31 1
  46   33   34 1
  47   34   35 1
  48   34   36 1
  49   34   37 1

#	End of record

