#	Name: ASD01914286
#	Creating user name:	WinNT
#	Creation time:	15. 06. 2019 20:03

#	Modifying user name:	WinNT
#	Modification time:	15. 06. 2019 20:03

#	Program:	/corina/corina34_cracker 3.40 0067  02.08.2006

@<TRIPOS>MOLECULE
ASD01914286
  35   37    0    0    0
SMALL
NO_CHARGES


@<TRIPOS>ATOM
   1 N1            -0.0169     1.3953     0.0097 N.2     
   2 N2             0.0021    -0.0041     0.0020 N.pl3   
   3 C3             1.2675    -0.4442    -0.0124 C.2     
   4 C4             2.1012     0.6587    -0.0145 C.ar    
   5 C5             3.4998     0.8478    -0.0264 C.ar    
   6 C6             4.0050     2.1064    -0.0241 C.ar    
   7 C7             3.1746     3.2319    -0.0101 C.ar    
   8 C8             1.8207     3.1214     0.0018 C.ar    
   9 C9             1.2261     1.8414     0.0002 C.ar    
  10 C10           -1.1861    -0.8610     0.0088 C.3     
  11 C11           -2.0727    -0.4943     1.2005 C.3     
  12 C12           -3.2666    -1.3553     1.2073 C.1     
  13 C13           -4.2187    -2.0421     1.2127 C.1     
  14 C14           -5.3801    -2.8798     1.2193 C.ar    
  15 C15           -6.3389    -2.7262     2.2215 C.ar    
  16 C16           -7.4554    -3.5431     2.2140 C.ar    
  17 C17           -7.5786    -4.4883     1.2048 C.ar    
  18 C18           -6.5905    -4.5867     0.2426 C.ar    
  19 N19           -5.5392    -3.7932     0.2685 N.ar    
  20 C20           -6.7208    -5.6119    -0.8541 C.3     
  21 F21           -7.4003    -5.0495    -1.9400 F       
  22 F22            3.7339     4.4617    -0.0080 F       
  23 H23            1.5808    -1.4777    -0.0210 H       
  24 H24            4.1634    -0.0042    -0.0369 H       
  25 H25            5.0763     2.2432    -0.0329 H       
  26 H26            1.2032     4.0074     0.0121 H       
  27 H27           -1.7435    -0.7167    -0.9168 H       
  28 H28           -0.8811    -1.9043     0.0903 H       
  29 H29           -1.5153    -0.6386     2.1261 H       
  30 H30           -2.3777     0.5490     1.1190 H       
  31 H31           -6.2110    -1.9804     2.9921 H       
  32 H32           -8.2141    -3.4479     2.9767 H       
  33 H33           -8.4383    -5.1411     1.1717 H       
  34 H34           -5.7285    -5.9315    -1.1725 H       
  35 H35           -7.2778    -6.4722    -0.4830 H       
@<TRIPOS>BOND
   1    1    2 1
   2    1    9 2
   3    2    3 1
   4    2   10 1
   5    3    4 2
   6    3   23 1
   7    4    5 ar
   8    4    9 ar
   9    5    6 ar
  10    5   24 1
  11    6    7 ar
  12    6   25 1
  13    7    8 ar
  14    7   22 1
  15    8    9 ar
  16    8   26 1
  17   10   11 1
  18   10   27 1
  19   10   28 1
  20   11   12 1
  21   11   29 1
  22   11   30 1
  23   12   13 3
  24   13   14 1
  25   14   15 ar
  26   14   19 ar
  27   15   16 ar
  28   15   31 1
  29   16   17 ar
  30   16   32 1
  31   17   18 ar
  32   17   33 1
  33   18   19 ar
  34   18   20 1
  35   20   21 1
  36   20   34 1
  37   20   35 1

#	End of record

