#	Name: ASD08170207
#	Creating user name:	WinNT
#	Creation time:	15. 06. 2019 21:17

#	Modifying user name:	WinNT
#	Modification time:	15. 06. 2019 21:17

#	Program:	/corina/corina34_cracker 3.40 0067  02.08.2006

@<TRIPOS>MOLECULE
ASD08170207
  54   57    0    0    0
SMALL
NO_CHARGES


@<TRIPOS>ATOM
   1 N1            -0.0150     1.2583     0.0090 N.2     
   2 N2             0.0021    -0.0041     0.0020 N.2     
   3 C3             1.1271     1.8769     0.0014 C.2     
   4 S4             2.3826     0.7116    -0.0169 S.3     
   5 C5             1.1681    -0.5677    -0.0121 C.2     
   6 C6             1.4387    -2.0502    -0.0227 C.3     
   7 C7             1.5165    -2.5442    -1.4687 C.3     
   8 C8             1.7912    -4.0493    -1.4794 C.3     
   9 C9             1.8690    -4.5432    -2.9254 C.3     
  10 C10            2.1395    -6.0257    -2.9359 C.2     
  11 N11            1.2478    -6.9651    -2.9329 N.2     
  12 S12            3.7275    -6.7933    -2.9623 S.3     
  13 C13            2.9647    -8.3272    -2.9581 C.2     
  14 N14            1.6777    -8.1521    -2.9433 N.2     
  15 N15            3.6154    -9.5562    -2.9730 N.am    
  16 C16            2.8993   -10.6980    -2.9678 C.2     
  17 O17            1.6874   -10.6536    -2.9501 O.2     
  18 C18            3.6044   -12.0297    -2.9839 C.3     
  19 N19            1.3017     3.2566     0.0067 N.am    
  20 C20            0.2284     4.0717     0.0214 C.2     
  21 O21           -0.8897     3.6019     0.0299 O.2     
  22 C22            0.4176     5.5667     0.0272 C.3     
  23 C23            1.0781     6.0164    -1.2905 C.3     
  24 C24            4.4098   -12.2120    -1.6828 C.3     
  25 O25            2.6391   -13.0932    -3.0415 O.3     
  26 C26            3.1804   -14.1954    -2.2820 C.3     
  27 C27            3.8322   -13.5049    -1.0570 C.3     
  28 C28            0.0675     7.0191    -1.8987 C.3     
  29 C29           -0.7595     7.4399    -0.6571 C.3     
  30 O30           -0.8597     6.2208     0.1098 O.3     
  31 H31            2.3843    -2.2506     0.4811 H       
  32 H32            0.6334    -2.5702     0.4961 H       
  33 H33            0.5709    -2.3438    -1.9724 H       
  34 H34            2.3218    -2.0242    -1.9874 H       
  35 H35            2.7368    -4.2496    -0.9756 H       
  36 H36            0.9858    -4.5693    -0.9606 H       
  37 H37            0.9234    -4.3429    -3.4291 H       
  38 H38            2.6743    -4.0232    -3.4441 H       
  39 H39            4.5846    -9.5917    -2.9871 H       
  40 H40            4.2720   -12.0851    -3.8438 H       
  41 H41            2.1959     3.6323    -0.0001 H       
  42 H42            1.0410     5.8580     0.8725 H       
  43 H43            2.0305     6.5079    -1.0916 H       
  44 H44            1.2188     5.1652    -1.9566 H       
  45 H45            5.4698   -12.3360    -1.9044 H       
  46 H46            4.2551   -11.3635    -1.0163 H       
  47 H47            2.3852   -14.8699    -1.9644 H       
  48 H48            3.9299   -14.7314    -2.8643 H       
  49 H49            4.6265   -14.1232    -0.6389 H       
  50 H50            3.0845   -13.2699    -0.2995 H       
  51 H51            0.5828     7.8765    -2.3316 H       
  52 H52           -0.5652     6.5320    -2.6406 H       
  53 H53           -0.2353     8.2086    -0.0893 H       
  54 H54           -1.7484     7.7885    -0.9548 H       
@<TRIPOS>BOND
   1    1    2 1
   2    1    3 2
   3    2    5 2
   4    3    4 1
   5    3   19 1
   6    4    5 1
   7    5    6 1
   8    6    7 1
   9    6   31 1
  10    6   32 1
  11    7    8 1
  12    7   33 1
  13    7   34 1
  14    8    9 1
  15    8   35 1
  16    8   36 1
  17    9   10 1
  18    9   37 1
  19    9   38 1
  20   10   11 2
  21   10   12 1
  22   11   14 1
  23   12   13 1
  24   13   14 2
  25   13   15 1
  26   15   16 am
  27   15   39 1
  28   16   17 2
  29   16   18 1
  30   18   24 1
  31   18   25 1
  32   18   40 1
  33   19   20 am
  34   19   41 1
  35   20   21 2
  36   20   22 1
  37   22   23 1
  38   22   30 1
  39   22   42 1
  40   23   28 1
  41   23   43 1
  42   23   44 1
  43   24   27 1
  44   24   45 1
  45   24   46 1
  46   25   26 1
  47   26   27 1
  48   26   47 1
  49   26   48 1
  50   27   49 1
  51   27   50 1
  52   28   29 1
  53   28   51 1
  54   28   52 1
  55   29   30 1
  56   29   53 1
  57   29   54 1

#	End of record

