#	Name: ASD05313204
#	Creating user name:	WinNT
#	Creation time:	15. 06. 2019 20:58

#	Modifying user name:	WinNT
#	Modification time:	15. 06. 2019 20:58

#	Program:	/corina/corina34_cracker 3.40 0067  02.08.2006

@<TRIPOS>MOLECULE
ASD05313204
  38   41    0    0    0
SMALL
NO_CHARGES


@<TRIPOS>ATOM
   1 C1            -0.0732     0.8206     1.0174 C.2     
   2 C2             0.1126    -0.6162     0.5922 C.3     
   3 N3             0.9364     1.7372     1.0435 N.pl3   
   4 N4             1.4566    -0.7161    -0.0078 N.am    
   5 C5             2.5712    -0.0364     0.6692 C.3     
   6 C6             2.3225     1.4767     0.6594 C.3     
   7 N7            -0.8989     2.6475     1.6968 N.2     
   8 N8            -1.1551     1.4157     1.4177 N.2     
   9 C9             0.3776     2.8970     1.4851 C.2     
  10 S10            2.7498     5.9390     1.8073 S.3     
  11 N11            2.3502     4.3302     1.4508 N.2     
  12 C12            1.0701     4.1878     1.6905 C.2     
  13 C13            0.3980     5.3147     2.1477 C.2     
  14 C14            1.1666     6.4134     2.2831 C.2     
  15 C15           -1.0748     5.3089     2.4666 C.3     
  16 C16            1.6575    -1.4114    -1.1448 C.2     
  17 O17            2.7497    -1.4014    -1.6785 O.2     
  18 C18            0.5505    -2.1856    -1.7424 C.ar    
  19 C19            0.3192    -2.1304    -3.1195 C.ar    
  20 C20           -0.7185    -2.8581    -3.6718 C.ar    
  21 C21           -1.5273    -3.6399    -2.8612 C.ar    
  22 C22           -1.3011    -3.6965    -1.4961 C.ar    
  23 C23           -0.2654    -2.9801    -0.9345 C.ar    
  24 F24           -0.9450    -2.8070    -5.0027 F       
  25 Cl25          -2.8292    -4.5511    -3.5603 Cl      
  26 Cl26           1.3316    -1.1504    -4.1336 Cl      
  27 H27            0.0425    -1.2730     1.4593 H       
  28 H28           -0.6445    -0.8875    -0.1435 H       
  29 H29            2.6399    -0.3873     1.6989 H       
  30 H30            3.5024    -0.2555     0.1467 H       
  31 H31            2.5031     1.8690    -0.3413 H       
  32 H32            2.9941     1.9609     1.3683 H       
  33 H33            0.8530     7.3902     2.6205 H       
  34 H34           -1.2189     5.0400     3.5130 H       
  35 H35           -1.4896     6.3006     2.2858 H       
  36 H36           -1.5812     4.5820     1.8316 H       
  37 H37           -1.9351    -4.3069    -0.8701 H       
  38 H38           -0.0884    -3.0296     0.1298 H       
@<TRIPOS>BOND
   1    1    2 1
   2    1    3 1
   3    1    8 2
   4    2    4 1
   5    2   27 1
   6    2   28 1
   7    3    6 1
   8    3    9 1
   9    4    5 1
  10    4   16 am
  11    5    6 1
  12    5   29 1
  13    5   30 1
  14    6   31 1
  15    6   32 1
  16    7    8 1
  17    7    9 2
  18    9   12 1
  19   10   11 1
  20   10   14 1
  21   11   12 2
  22   12   13 1
  23   13   14 2
  24   13   15 1
  25   14   33 1
  26   15   34 1
  27   15   35 1
  28   15   36 1
  29   16   17 2
  30   16   18 1
  31   18   19 ar
  32   18   23 ar
  33   19   20 ar
  34   19   26 1
  35   20   21 ar
  36   20   24 1
  37   21   22 ar
  38   21   25 1
  39   22   23 ar
  40   22   37 1
  41   23   38 1

#	End of record

