#	Name: ASD00170455
#	Creating user name:	WinNT
#	Creation time:	15. 06. 2019 18:32

#	Modifying user name:	WinNT
#	Modification time:	15. 06. 2019 18:32

#	Program:	/corina/corina34_cracker 3.40 0067  02.08.2006

@<TRIPOS>MOLECULE
ASD00170455
  29   31    0    0    0
SMALL
NO_CHARGES


@<TRIPOS>ATOM
   1 C1             0.0107     1.3837     0.1310 C.ar    
   2 C2             0.0215     0.0026     0.1251 C.ar    
   3 C3             1.2215    -0.6778    -0.0136 C.ar    
   4 C4             2.4112     0.0276    -0.1468 C.ar    
   5 C5             2.3953     1.4088    -0.1424 C.ar    
   6 C6             1.1941     2.0843    -0.0022 C.ar    
   7 O7             1.2342    -2.0370    -0.0189 O.3     
   8 C8             1.4617    -2.6490     1.1543 C.2     
   9 O9             1.7261    -1.9953     2.1354 O.2     
  10 C10            1.3874    -4.1513     1.2473 C.3     
  11 C11            3.8322    -0.4683    -0.3060 C.3     
  12 C12            4.7248     0.7396     0.0439 C.3     
  13 C13            3.8034     1.9401    -0.3062 C.3     
  14 S14            6.0361     0.8924    -1.2157 S.3     
  15 C15            5.1167     1.9742    -2.2714 C.2     
  16 N16            4.0345     2.3423    -1.6810 N.2     
  17 N17            5.5009     2.3629    -3.5338 N.pl3   
  18 H18           -0.9232     1.9160     0.2352 H       
  19 H19           -0.9029    -0.5462     0.2287 H       
  20 H20            1.1826     3.1643     0.0030 H       
  21 H21            2.3697    -4.5771     1.0426 H       
  22 H22            1.0689    -4.4379     2.2496 H       
  23 H23            0.6698    -4.5255     0.5171 H       
  24 H24            4.0243    -1.2920     0.3816 H       
  25 H25            4.0094    -0.7840    -1.3341 H       
  26 H26            5.0833     0.7378     1.0733 H       
  27 H27            3.9797     2.7680     0.3804 H       
  28 H28            6.3351     2.0389    -3.9082 H       
  29 H29            4.9377     2.9610    -4.0496 H       
@<TRIPOS>BOND
   1    1    2 ar
   2    1    6 ar
   3    1   18 1
   4    2    3 ar
   5    2   19 1
   6    3    4 ar
   7    3    7 1
   8    4    5 ar
   9    4   11 1
  10    5    6 ar
  11    5   13 1
  12    6   20 1
  13    7    8 1
  14    8    9 2
  15    8   10 1
  16   10   21 1
  17   10   22 1
  18   10   23 1
  19   11   12 1
  20   11   24 1
  21   11   25 1
  22   12   13 1
  23   12   14 1
  24   12   26 1
  25   13   16 1
  26   13   27 1
  27   14   15 1
  28   15   16 2
  29   15   17 1
  30   17   28 1
  31   17   29 1

#	End of record

