#	Name: ASD02198818
#	Creating user name:	WinNT
#	Creation time:	15. 06. 2019 20:20

#	Modifying user name:	WinNT
#	Modification time:	15. 06. 2019 20:20

#	Program:	/corina/corina34_cracker 3.40 0067  02.08.2006

@<TRIPOS>MOLECULE
ASD02198818
  52   56    0    0    0
SMALL
NO_CHARGES


@<TRIPOS>ATOM
   1 C1            -0.0163     1.3526     0.0095 C.2     
   2 C2             0.0021    -0.0041     0.0020 C.2     
   3 N3             1.1721    -0.6813    -0.0123 N.pl3   
   4 N4             2.3180    -0.1068    -0.0202 N.2     
   5 C5             2.4432     1.2032    -0.0147 C.2     
   6 C6             1.2263     2.0305     0.0013 C.2     
   7 C7             1.1302    -2.0795    -0.0185 C.ar    
   8 C8             1.8107    -2.8025     0.9604 C.ar    
   9 C9             1.7671    -4.1866     0.9514 C.ar    
  10 C10            1.0466    -4.8508    -0.0315 C.ar    
  11 C11            0.3696    -4.1285    -1.0064 C.ar    
  12 C12            0.4060    -2.7489    -0.9964 C.ar    
  13 C13            3.7799     1.8313    -0.0236 C.2     
  14 N14            4.5050     2.1821    -1.1276 N.pl3   
  15 N15            5.7091     2.7447    -0.6862 N.2     
  16 C16            5.7215     2.7390     0.6230 C.2     
  17 C17            4.5282     2.1794     1.0796 C.2     
  18 C18            4.1139     2.0099    -2.4615 C.ar    
  19 C19            4.4736     2.9493    -3.4187 C.ar    
  20 C20            4.0867     2.7773    -4.7336 C.ar    
  21 C21            3.3415     1.6713    -5.0976 C.ar    
  22 C22            2.9806     0.7329    -4.1461 C.ar    
  23 C23            3.3706     0.8964    -2.8303 C.ar    
  24 O24            1.2860     3.2511     0.0065 O.2     
  25 N25            1.0023    -6.2517    -0.0410 N.pl3   
  26 N26            1.6339    -7.1028     0.8751 N.2     
  27 C27            1.3611    -8.3385     0.5410 C.2     
  28 C28            0.5479    -8.3150    -0.5974 C.2     
  29 C29            0.3375    -7.0209    -0.9326 C.2     
  30 Cl30           2.0443    -0.6543    -4.6073 Cl      
  31 O31            2.5160    -2.1500     1.9216 O.3     
  32 C32            3.1883    -2.9550     2.8922 C.3     
  33 C33            4.1326     1.9825     2.5204 C.3     
  34 H34           -0.9487     1.8976     0.0169 H       
  35 H35           -0.9298    -0.5499     0.0080 H       
  36 H36            2.2937    -4.7488     1.7083 H       
  37 H37           -0.1902    -4.6474    -1.7705 H       
  38 H38           -0.1211    -2.1897    -1.7552 H       
  39 H39            6.5217     3.1097     1.2463 H       
  40 H40            5.0551     3.8141    -3.1353 H       
  41 H41            4.3664     3.5080    -5.4781 H       
  42 H42            3.0399     1.5393    -6.1262 H       
  43 H43            3.0890     0.1643    -2.0880 H       
  44 H44            1.7046    -9.2238     1.0554 H       
  45 H45            0.1546    -9.1775    -1.1150 H       
  46 H46           -0.2504    -6.6663    -1.7663 H       
  47 H47            3.7114    -2.3109     3.5990 H       
  48 H48            2.4594    -3.5644     3.4265 H       
  49 H49            3.9068    -3.6038     2.3913 H       
  50 H50            3.6038     2.8668     2.8760 H       
  51 H51            3.4815     1.1122     2.6027 H       
  52 H52            5.0263     1.8261     3.1245 H       
@<TRIPOS>BOND
   1    1    2 2
   2    1    6 1
   3    1   34 1
   4    2    3 1
   5    2   35 1
   6    3    4 1
   7    3    7 1
   8    4    5 2
   9    5    6 1
  10    5   13 1
  11    6   24 2
  12    7    8 ar
  13    7   12 ar
  14    8    9 ar
  15    8   31 1
  16    9   10 ar
  17    9   36 1
  18   10   11 ar
  19   10   25 1
  20   11   12 ar
  21   11   37 1
  22   12   38 1
  23   13   14 1
  24   13   17 2
  25   14   15 1
  26   14   18 1
  27   15   16 2
  28   16   17 1
  29   16   39 1
  30   17   33 1
  31   18   19 ar
  32   18   23 ar
  33   19   20 ar
  34   19   40 1
  35   20   21 ar
  36   20   41 1
  37   21   22 ar
  38   21   42 1
  39   22   23 ar
  40   22   30 1
  41   23   43 1
  42   25   26 1
  43   25   29 1
  44   26   27 2
  45   27   28 1
  46   27   44 1
  47   28   29 2
  48   28   45 1
  49   29   46 1
  50   31   32 1
  51   32   47 1
  52   32   48 1
  53   32   49 1
  54   33   50 1
  55   33   51 1
  56   33   52 1

#	End of record

