#	Name: ASD03091773
#	Creating user name:	WinNT
#	Creation time:	15. 06. 2019 20:31

#	Modifying user name:	WinNT
#	Modification time:	15. 06. 2019 20:31

#	Program:	/corina/corina34_cracker 3.40 0067  02.08.2006

@<TRIPOS>MOLECULE
ASD03091773
  32   34    0    0    0
SMALL
NO_CHARGES


@<TRIPOS>ATOM
   1 C1            -0.0121     1.4511    -0.0374 C.3     
   2 C2             0.0701    -0.0749    -0.1126 C.3     
   3 N3             0.7693    -0.5879     1.0725 N.3     
   4 C4             0.0414    -0.2542     2.3035 C.3     
   5 C5            -0.0422     1.2663     2.4526 C.3     
   6 C6             1.3739     1.8468     2.5291 C.3     
   7 N7             2.0551     1.5998     1.2509 N.am    
   8 C8             1.4046     2.0335     0.0070 C.3     
   9 C9             3.2546     0.9861     1.2201 C.2     
  10 O10            3.7553     0.6819     0.1532 O.2     
  11 C11            3.9558     0.6852     2.4706 C.2     
  12 C12            5.0967    -0.0579     2.5936 C.2     
  13 C13           -0.7613     1.8561     1.2357 C.3     
  14 O14            3.5923     1.0979     3.7034 O.3     
  15 C15            4.4672     0.6325     4.6044 C.2     
  16 C16            5.4131    -0.0869     3.9622 C.2     
  17 Cl17           5.9819    -0.8187     1.3086 Cl      
  18 H18           -0.5365     1.8322    -0.9136 H       
  19 H19           -0.9365    -0.4915    -0.1489 H       
  20 H20            0.6158    -0.3654    -1.0103 H       
  21 H21            0.9209    -1.5828     1.0005 H       
  22 H22           -0.9649    -0.6701     2.2543 H       
  23 H23            0.5664    -0.6748     3.1611 H       
  24 H24           -0.5884     1.5145     3.3627 H       
  25 H25            1.3197     2.9198     2.7130 H       
  26 H26            1.9242     1.3629     3.3360 H       
  27 H27            1.9751     1.6725    -0.8488 H       
  28 H28            1.3532     3.1220    -0.0183 H       
  29 H29           -0.7815     2.9430     1.3161 H       
  30 H30           -1.7814     1.4742     1.1950 H       
  31 H31            4.4250     0.8062     5.6695 H       
  32 H32            6.2544    -0.5900     4.4156 H       
@<TRIPOS>BOND
   1    1    2 1
   2    1    8 1
   3    1   13 1
   4    1   18 1
   5    2    3 1
   6    2   19 1
   7    2   20 1
   8    3    4 1
   9    3   21 1
  10    4    5 1
  11    4   22 1
  12    4   23 1
  13    5    6 1
  14    5   13 1
  15    5   24 1
  16    6    7 1
  17    6   25 1
  18    6   26 1
  19    7    8 1
  20    7    9 am
  21    8   27 1
  22    8   28 1
  23    9   10 2
  24    9   11 1
  25   11   12 2
  26   11   14 1
  27   12   17 1
  28   12   16 1
  29   13   29 1
  30   13   30 1
  31   14   15 1
  32   15   16 2
  33   15   31 1
  34   16   32 1

#	End of record

