#	Name: ASD03240540
#	Creating user name:	WinNT
#	Creation time:	15. 06. 2019 20:35

#	Modifying user name:	WinNT
#	Modification time:	15. 06. 2019 20:35

#	Program:	/corina/corina34_cracker 3.40 0067  02.08.2006

@<TRIPOS>MOLECULE
ASD03240540
  57   63    0    0    0
SMALL
NO_CHARGES


@<TRIPOS>ATOM
   1 C1            -0.0166     1.3754     0.0096 C.ar    
   2 C2             0.0021    -0.0041     0.0020 C.ar    
   3 N3             1.1422    -0.6683    -0.0058 N.ar    
   4 C4             2.3145    -0.0481    -0.0057 C.ar    
   5 C5             2.3702     1.3443    -0.0124 C.ar    
   6 C6             1.1861     2.0698     0.0018 C.ar    
   7 N7             3.4821    -0.8058     0.0221 N.pl3   
   8 C8             4.3593    -0.7189     1.0998 C.ar    
   9 C9             4.9952     0.4898     1.4035 C.ar    
  10 C10            4.7633     1.6839     0.5617 C.2     
  11 N11            3.5939     2.0276    -0.0512 N.pl3   
  12 C12            4.6056    -1.8383     1.8833 C.ar    
  13 C13            5.4655    -1.7525     2.9617 C.ar    
  14 C14            6.0866    -0.5544     3.2698 C.ar    
  15 C15            5.8562     0.5665     2.4980 C.ar    
  16 N16            5.6749     2.5952     0.2842 N.2     
  17 C17            5.1455     3.5405    -0.5064 C.2     
  18 C18            3.8234     3.2055    -0.7381 C.2     
  19 C19            2.8515     3.9557    -1.5560 C.ar    
  20 C20            2.7531     5.3440    -1.4318 C.ar    
  21 C21            2.0290     3.2821    -2.4628 C.ar    
  22 C22            1.1227     3.9900    -3.2241 C.ar    
  23 C23            1.0268     5.3642    -3.0915 C.ar    
  24 C24            1.8421     6.0388    -2.1997 C.ar    
  25 C25            5.8509     4.7314    -1.0370 C.2     
  26 C26            0.0343     6.1306    -3.9274 C.3     
  27 N27           -1.0445     5.2829    -4.4522 N.3     
  28 C28           -0.4666     7.4219    -3.2592 C.3     
  29 C29           -0.3789     8.0804    -4.6461 C.3     
  30 C30            0.6879     7.0260    -4.9931 C.3     
  31 C31            5.6000     5.2441    -2.2564 C.2     
  32 S32            6.6273     6.6452    -2.5281 S.3     
  33 C33            7.3601     6.4604    -0.9408 C.2     
  34 C34            6.8249     5.4168    -0.3124 C.2     
  35 H35           -0.9556     1.9091     0.0170 H       
  36 H36           -0.9306    -0.5486     0.0028 H       
  37 H37            1.2002     3.1497     0.0064 H       
  38 H38            3.6864    -1.4004    -0.7166 H       
  39 H39            4.1245    -2.7767     1.6501 H       
  40 H40            5.6544    -2.6262     3.5679 H       
  41 H41            6.7532    -0.4963     4.1176 H       
  42 H42            6.3421     1.5001     2.7403 H       
  43 H43            3.3885     5.8717    -0.7360 H       
  44 H44            2.1030     2.2097    -2.5675 H       
  45 H45            0.4866     3.4708    -3.9256 H       
  46 H46            1.7618     7.1113    -2.1015 H       
  47 H47           -0.6716     4.4608    -4.9029 H       
  48 H48           -1.6945     5.0317    -3.7225 H       
  49 H49           -1.4838     7.3482    -2.8744 H       
  50 H50            0.2324     7.8375    -2.5334 H       
  51 H51           -1.2922     7.9851    -5.2333 H       
  52 H52            0.0054     9.1001    -4.6217 H       
  53 H53            1.7032     7.3330    -4.7417 H       
  54 H54            0.6017     6.6349    -6.0069 H       
  55 H55            4.8789     4.8545    -2.9597 H       
  56 H56            8.1280     7.1018    -0.5341 H       
  57 H57            7.1276     5.1187     0.6805 H       
@<TRIPOS>BOND
   1    1    2 ar
   2    1    6 ar
   3    1   35 1
   4    2    3 ar
   5    2   36 1
   6    3    4 ar
   7    4    5 ar
   8    4    7 1
   9    5    6 ar
  10    5   11 1
  11    6   37 1
  12    7    8 1
  13    7   38 1
  14    8    9 ar
  15    8   12 ar
  16    9   10 1
  17    9   15 ar
  18   10   11 1
  19   10   16 2
  20   11   18 1
  21   12   13 ar
  22   12   39 1
  23   13   14 ar
  24   13   40 1
  25   14   15 ar
  26   14   41 1
  27   15   42 1
  28   16   17 1
  29   17   18 2
  30   17   25 1
  31   18   19 1
  32   19   20 ar
  33   19   21 ar
  34   20   24 ar
  35   20   43 1
  36   21   22 ar
  37   21   44 1
  38   22   23 ar
  39   22   45 1
  40   23   24 ar
  41   23   26 1
  42   24   46 1
  43   25   31 2
  44   25   34 1
  45   26   27 1
  46   26   28 1
  47   26   30 1
  48   27   47 1
  49   27   48 1
  50   28   29 1
  51   28   49 1
  52   28   50 1
  53   29   30 1
  54   29   51 1
  55   29   52 1
  56   30   53 1
  57   30   54 1
  58   31   32 1
  59   31   55 1
  60   32   33 1
  61   33   34 2
  62   33   56 1
  63   34   57 1

#	End of record

