#	Name: ASD04590312
#	Creating user name:	WinNT
#	Creation time:	15. 06. 2019 20:50

#	Modifying user name:	WinNT
#	Modification time:	15. 06. 2019 20:50

#	Program:	/corina/corina34_cracker 3.40 0067  02.08.2006

@<TRIPOS>MOLECULE
ASD04590312
  61   65    0    0    0
SMALL
NO_CHARGES


@<TRIPOS>ATOM
   1 C1            -0.0036     1.3870    -0.0774 C.ar    
   2 C2             0.0061    -0.0109     0.0131 C.ar    
   3 C3             1.2128    -0.6979     0.1064 C.ar    
   4 C4             2.4114     0.0156     0.1085 C.ar    
   5 C5             2.3824     1.4205     0.0162 C.ar    
   6 C6             1.1673     2.0889    -0.0757 C.ar    
   7 N7             3.7142    -0.3542     0.1846 N.2     
   8 C8             4.4757     0.7120     0.1459 C.2     
   9 N9             3.6976     1.8344     0.0420 N.pl3   
  10 C10            5.9519     0.7042     0.2059 C.2     
  11 C11            6.7735    -0.4417     0.3131 C.2     
  12 C12            8.0631    -0.0248     0.3373 C.2     
  13 N13            8.0642     1.3313     0.2492 N.pl3   
  14 N14            6.7351     1.7643     0.1632 N.2     
  15 N15            6.3325    -1.7730     0.3828 N.am    
  16 C16            7.2280    -2.7752     0.4835 C.2     
  17 C17            6.7646    -4.1739     0.5568 C.ar    
  18 O18            8.4180    -2.5265     0.5140 O.2     
  19 C19            6.1511    -6.2278    -0.5366 C.ar    
  20 C20            5.8936    -6.8031     0.6944 C.ar    
  21 C21            6.0625    -6.0731     1.8569 C.ar    
  22 C22            6.4962    -4.7621     1.7975 C.ar    
  23 C23            6.5855    -4.9179    -0.6145 C.ar    
  24 F24            6.8360    -4.3576    -1.8180 F       
  25 F25            6.6610    -4.0508     2.9343 F       
  26 C26           -1.2679    -0.7576     0.0101 C.2     
  27 N27           -1.3660    -1.9201    -0.6647 N.am    
  28 C28           -2.5838    -2.7407    -0.5816 C.3     
  29 C29           -0.2606    -2.3988    -1.5085 C.3     
  30 C30           -0.8191    -2.7432    -2.8933 C.3     
  31 N31           -1.9396    -3.6817    -2.7463 N.3     
  32 C32           -3.0462    -3.0710    -2.0048 C.3     
  33 C33           -2.3924    -4.1702    -4.0556 C.3     
  34 C34           -3.4726    -5.2354    -3.8568 C.3     
  35 C35           -2.9677    -3.0052    -4.8635 C.3     
  36 O36           -2.2283    -0.3237     0.6164 O.2     
  37 H37           -0.9438     1.9129    -0.1537 H       
  38 H38            1.2211    -1.7756     0.1770 H       
  39 H39            1.1494     3.1664    -0.1463 H       
  40 H40            4.0131     2.7504    -0.0048 H       
  41 H41            8.9348    -0.6578     0.4135 H       
  42 H42            8.8496     1.9006     0.2435 H       
  43 H43            5.3833    -1.9714     0.3585 H       
  44 H44            6.0169    -6.8051    -1.4395 H       
  45 H45            5.5540    -7.8270     0.7480 H       
  46 H46            5.8588    -6.5300     2.8141 H       
  47 H47           -2.3675    -3.6636    -0.0435 H       
  48 H48           -3.3649    -2.1853    -0.0625 H       
  49 H49            0.4936    -1.6174    -1.6019 H       
  50 H50            0.1831    -3.2882    -1.0610 H       
  51 H51           -1.1684    -1.8333    -3.3812 H       
  52 H52           -0.0366    -3.2028    -3.4971 H       
  53 H53           -3.8820    -3.7691    -1.9584 H       
  54 H54           -3.3620    -2.1579    -2.5093 H       
  55 H55           -1.5491    -4.6038    -4.5931 H       
  56 H56           -3.0628    -6.0654    -3.2811 H       
  57 H57           -4.3159    -4.8019    -3.3192 H       
  58 H58           -3.8086    -5.5979    -4.8283 H       
  59 H59           -2.1982    -2.2464    -5.0052 H       
  60 H60           -3.3036    -3.3677    -5.8350 H       
  61 H61           -3.8110    -2.5717    -4.3260 H       
@<TRIPOS>BOND
   1    1    2 ar
   2    1    6 ar
   3    1   37 1
   4    2    3 ar
   5    2   26 1
   6    3    4 ar
   7    3   38 1
   8    4    5 ar
   9    4    7 1
  10    5    6 ar
  11    5    9 1
  12    6   39 1
  13    7    8 2
  14    8    9 1
  15    8   10 1
  16    9   40 1
  17   10   11 1
  18   10   14 2
  19   11   12 2
  20   11   15 1
  21   12   13 1
  22   12   41 1
  23   13   14 1
  24   13   42 1
  25   15   16 am
  26   15   43 1
  27   16   17 1
  28   16   18 2
  29   17   22 ar
  30   17   23 ar
  31   19   20 ar
  32   19   23 ar
  33   19   44 1
  34   20   21 ar
  35   20   45 1
  36   21   22 ar
  37   21   46 1
  38   22   25 1
  39   23   24 1
  40   26   27 am
  41   26   36 2
  42   27   28 1
  43   27   29 1
  44   28   32 1
  45   28   47 1
  46   28   48 1
  47   29   30 1
  48   29   49 1
  49   29   50 1
  50   30   31 1
  51   30   51 1
  52   30   52 1
  53   31   32 1
  54   31   33 1
  55   32   53 1
  56   32   54 1
  57   33   34 1
  58   33   35 1
  59   33   55 1
  60   34   56 1
  61   34   57 1
  62   34   58 1
  63   35   59 1
  64   35   60 1
  65   35   61 1

#	End of record

