#	Name: ASD03430511
#	Creating user name:	WinNT
#	Creation time:	15. 06. 2019 20:41

#	Modifying user name:	WinNT
#	Modification time:	15. 06. 2019 20:41

#	Program:	/corina/corina34_cracker 3.40 0067  02.08.2006

@<TRIPOS>MOLECULE
ASD03430511
  31   34    0    0    0
SMALL
NO_CHARGES


@<TRIPOS>ATOM
   1 N1            -0.0161     1.3395     0.0094 N.am    
   2 C2             0.0021    -0.0041     0.0020 C.2     
   3 C3             1.4549    -0.4297    -0.0141 C.3     
   4 C4             2.2195     0.8739    -0.0144 C.ar    
   5 C5             3.5650     1.1711    -0.0261 C.ar    
   6 C6             3.9799     2.4926    -0.0233 C.ar    
   7 C7             3.0412     3.5079    -0.0089 C.ar    
   8 C8             1.6938     3.2124     0.0032 C.ar    
   9 C9             1.2679     1.8853     0.0001 C.ar    
  10 O10           -0.9637    -0.7378     0.0076 O.2     
  11 O11            2.6034    -3.2248     4.7295 O.3     
  12 C12            1.8606    -2.3747     5.6231 C.3     
  13 O13            1.8129    -1.1117     4.9332 O.3     
  14 C14            1.9020    -1.4184     3.6050 C.ar    
  15 C15            2.3881    -2.7179     3.4804 C.ar    
  16 C16            1.6009    -0.6819     2.4716 C.ar    
  17 C17            1.7831    -1.2342     1.2172 C.ar    
  18 C18            2.2671    -2.5274     1.0907 C.ar    
  19 C19            2.5696    -3.2690     2.2230 C.ar    
  20 O20            2.4447    -3.0688    -0.1439 O.3     
  21 Cl21           4.7380    -0.1085    -0.0435 Cl      
  22 H22           -0.8287     1.8692     0.0162 H       
  23 H23            1.6752    -1.0020    -0.9153 H       
  24 H24            5.0336     2.7294    -0.0321 H       
  25 H25            3.3648     4.5383    -0.0068 H       
  26 H26            0.9672     4.0113     0.0151 H       
  27 H27            0.8548    -2.7657     5.7761 H       
  28 H28            2.3814    -2.2716     6.5750 H       
  29 H29            1.2240     0.3256     2.5676 H       
  30 H30            2.9468    -4.2762     2.1241 H       
  31 H31            3.3227    -2.9144    -0.5185 H       
@<TRIPOS>BOND
   1    1    2 am
   2    1    9 1
   3    1   22 1
   4    2    3 1
   5    2   10 2
   6    3    4 1
   7    3   17 1
   8    3   23 1
   9    4    5 ar
  10    4    9 ar
  11    5    6 ar
  12    5   21 1
  13    6    7 ar
  14    6   24 1
  15    7    8 ar
  16    7   25 1
  17    8    9 ar
  18    8   26 1
  19   11   12 1
  20   11   15 1
  21   12   13 1
  22   12   27 1
  23   12   28 1
  24   13   14 1
  25   14   15 ar
  26   14   16 ar
  27   15   19 ar
  28   16   17 ar
  29   16   29 1
  30   17   18 ar
  31   18   19 ar
  32   18   20 1
  33   19   30 1
  34   20   31 1

#	End of record

