#	Name: ASD02398065
#	Creating user name:	WinNT
#	Creation time:	15. 06. 2019 20:20

#	Modifying user name:	WinNT
#	Modification time:	15. 06. 2019 20:20

#	Program:	/corina/corina34_cracker 3.40 0067  02.08.2006

@<TRIPOS>MOLECULE
ASD02398065
  70   73    0    0    0
SMALL
NO_CHARGES


@<TRIPOS>ATOM
   1 C1             0.3416     1.9912    -0.3307 C.ar    
   2 C2             0.5749     0.6148    -0.1435 C.ar    
   3 N3            -0.6426     0.0267     0.1225 N.pl3   
   4 C4            -1.6290     0.9721     0.1118 C.2     
   5 C5            -1.0944     2.1799    -0.1512 C.2     
   6 C6             1.4093     2.8437    -0.6185 C.ar    
   7 C7             2.6751     2.3387    -0.7164 C.ar    
   8 C8             2.9096     0.9831    -0.5326 C.ar    
   9 C9             1.8715     0.1233    -0.2476 C.ar    
  10 C10           -3.1031     0.7438     0.3563 C.3     
  11 C11           -3.8767     1.9626    -0.1585 C.3     
  12 C12           -3.2499     3.2415     0.4041 C.3     
  13 C13           -1.8780     3.4640    -0.2403 C.3     
  14 N14           -4.1205     4.3827     0.1109 N.am    
  15 C15           -4.3459     4.7946    -1.2768 C.3     
  16 C16           -3.5813     6.0556     2.2287 C.ar    
  17 C17           -3.2232     7.3385     1.8586 C.ar    
  18 C18           -2.9487     5.4400     3.2927 C.ar    
  19 C19           -1.9579     6.1068     3.9879 C.ar    
  20 C20           -1.5984     7.3918     3.6182 C.ar    
  21 C21           -2.2323     8.0072     2.5520 C.ar    
  22 F22           -0.6302     8.0448     4.2974 F       
  23 C23           -5.7811     4.4538    -1.6832 C.3     
  24 C24           -0.8488    -1.4009     0.3784 C.3     
  25 C25           -0.7212    -1.6738     1.8784 C.3     
  26 C26           -0.9366    -3.1648     2.1457 C.3     
  27 C27           -5.9550     4.6878    -3.1852 C.3     
  28 C28           -6.0682     2.9864    -1.3591 C.3     
  29 O29           -6.6909     5.2876    -0.9628 O.3     
  30 C30           -0.9329    -3.4183     3.6545 C.3     
  31 C31           -2.2811    -3.5991     1.5588 C.3     
  32 O32            0.1147    -3.9151     1.5341 O.3     
  33 S33           -4.8499     5.2070     1.3482 S.o2    
  34 O34           -5.6565     6.2081     0.7428 O.2     
  35 O35           -5.3660     4.2246     2.2356 O.2     
  36 H36            1.2351     3.8996    -0.7639 H       
  37 H37            3.4998     2.9996    -0.9389 H       
  38 H38            3.9157     0.5987    -0.6132 H       
  39 H39            2.0641    -0.9299    -0.1062 H       
  40 H40           -3.4288    -0.1489    -0.1775 H       
  41 H41           -3.2823     0.6209     1.4245 H       
  42 H42           -3.8346     1.9861    -1.2475 H       
  43 H43           -4.9160     1.8956     0.1632 H       
  44 H44           -3.1289     3.1432     1.4829 H       
  45 H45           -1.3490     4.2566     0.2888 H       
  46 H46           -2.0053     3.7397    -1.2872 H       
  47 H47           -4.1882     5.8693    -1.3670 H       
  48 H48           -3.6490     4.2690    -1.9296 H       
  49 H49           -3.7178     7.8183     1.0270 H       
  50 H50           -3.2293     4.4377     3.5810 H       
  51 H51           -1.4643     5.6260     4.8196 H       
  52 H52           -1.9525     9.0093     2.2625 H       
  53 H53           -1.8435    -1.6908     0.0397 H       
  54 H54           -0.0985    -1.9789    -0.1612 H       
  55 H55            0.2735    -1.3840     2.2171 H       
  56 H56           -1.4715    -1.0959     2.4180 H       
  57 H57           -5.2610     4.0519    -3.7348 H       
  58 H58           -6.9774     4.4451    -3.4747 H       
  59 H59           -5.7505     5.7333    -3.4161 H       
  60 H60           -6.0949     2.8516    -0.2778 H       
  61 H61           -7.0305     2.7018    -1.7846 H       
  62 H62           -5.2837     2.3602    -1.7840 H       
  63 H63           -6.5666     6.2335    -1.1204 H       
  64 H64           -1.7348    -2.8460     4.1210 H       
  65 H65           -1.0864    -4.4805     3.8449 H       
  66 H66            0.0250    -3.1089     4.0726 H       
  67 H67           -2.2837    -3.4186     0.4839 H       
  68 H68           -2.4346    -4.6613     1.7492 H       
  69 H69           -3.0830    -3.0268     2.0253 H       
  70 H70            0.9977    -3.6917     1.8588 H       
@<TRIPOS>BOND
   1    1    2 ar
   2    1    6 ar
   3    1    5 1
   4    2    3 1
   5    2    9 ar
   6    3    4 1
   7    3   24 1
   8    4    5 2
   9    4   10 1
  10    5   13 1
  11    6    7 ar
  12    6   36 1
  13    7    8 ar
  14    7   37 1
  15    8    9 ar
  16    8   38 1
  17    9   39 1
  18   10   11 1
  19   10   40 1
  20   10   41 1
  21   11   12 1
  22   11   42 1
  23   11   43 1
  24   12   13 1
  25   12   14 1
  26   12   44 1
  27   13   45 1
  28   13   46 1
  29   14   15 1
  30   14   33 am
  31   15   23 1
  32   15   47 1
  33   15   48 1
  34   16   17 ar
  35   16   18 ar
  36   16   33 1
  37   17   21 ar
  38   17   49 1
  39   18   19 ar
  40   18   50 1
  41   19   20 ar
  42   19   51 1
  43   20   21 ar
  44   20   22 1
  45   21   52 1
  46   23   27 1
  47   23   28 1
  48   23   29 1
  49   24   25 1
  50   24   53 1
  51   24   54 1
  52   25   26 1
  53   25   55 1
  54   25   56 1
  55   26   30 1
  56   26   31 1
  57   26   32 1
  58   27   57 1
  59   27   58 1
  60   27   59 1
  61   28   60 1
  62   28   61 1
  63   28   62 1
  64   29   63 1
  65   30   64 1
  66   30   65 1
  67   30   66 1
  68   31   67 1
  69   31   68 1
  70   31   69 1
  71   32   70 1
  72   33   34 2
  73   33   35 2

#	End of record

