#	Name: ASD06170291
#	Creating user name:	WinNT
#	Creation time:	15. 06. 2019 21:05

#	Modifying user name:	WinNT
#	Modification time:	15. 06. 2019 21:05

#	Program:	/corina/corina34_cracker 3.40 0067  02.08.2006

@<TRIPOS>MOLECULE
ASD06170291
  70   74    0    0    0
SMALL
NO_CHARGES


@<TRIPOS>ATOM
   1 N1            -0.2441     1.8323     0.8494 N.am    
   2 N2             0.2710     0.5734     1.1727 N.pl3   
   3 C3             1.6138     0.6344     1.2549 C.2     
   4 C4             2.0109     1.9302     0.9885 C.2     
   5 C5             0.7834     2.6980     0.7260 C.2     
   6 C6             3.3869     2.4409     0.9708 C.2     
   7 O7             4.3168     1.6925     1.2077 O.2     
   8 N8             3.6205     3.7387     0.6923 N.am    
   9 C9            -0.5311    -0.6331     1.3902 C.3     
  10 C10            2.5289    -0.5171     1.5828 C.3     
  11 C11            4.9362     4.2065     0.5873 C.ar    
  12 C12            5.9317     3.3742     0.0934 C.ar    
  13 C13            7.2305     3.8370    -0.0098 C.ar    
  14 C14            7.5382     5.1343     0.3807 C.ar    
  15 C15            6.5429     5.9648     0.8739 C.ar    
  16 C16            5.2444     5.5049     0.9719 C.ar    
  17 O17            8.8156     5.5898     0.2798 O.3     
  18 N18           10.0586     7.0076    -3.3881 N.ar    
  19 C19           10.8961     7.1199    -2.3503 C.ar    
  20 C20           10.5078     6.6457    -1.0736 C.ar    
  21 C21            9.2311     6.0583    -0.9224 C.ar    
  22 C22            8.4184     5.9756    -2.0396 C.ar    
  23 C23            8.8711     6.4638    -3.2585 C.ar    
  24 O24            0.7095     3.8812     0.4515 O.2     
  25 C25           -1.5973     2.1411     0.6769 C.ar    
  26 C26           -2.5363     1.6921     1.5964 C.ar    
  27 C27           11.3875     6.7637     0.0124 C.ar    
  28 C28           12.6105     7.3334    -0.1655 C.ar    
  29 C29           13.0041     7.8049    -1.4212 C.ar    
  30 C30           12.1633     7.7039    -2.5064 C.ar    
  31 C31           15.0569     8.4461    -0.4091 C.3     
  32 O32           14.2303     8.3695    -1.5722 O.3     
  33 F33            8.2001     3.0278    -0.4899 F       
  34 C34           -0.9470    -1.2193     0.0396 C.3     
  35 O35            0.2173    -1.4682    -0.7506 O.3     
  36 C36           -1.8554    -0.2270    -0.6892 C.3     
  37 C37           -3.8717     1.9988     1.4232 C.ar    
  38 C38           -4.2743     2.7516     0.3354 C.ar    
  39 C39           -3.3419     3.2002    -0.5820 C.ar    
  40 C40           -2.0041     2.9023    -0.4112 C.ar    
  41 C41            0.2967    -1.6638     2.1604 C.3     
  42 H42            2.8772     4.3488     0.5645 H       
  43 H43           -1.4213    -0.3787     1.9655 H       
  44 H44            2.7320    -1.0890     0.6775 H       
  45 H45            3.4653    -0.1331     1.9877 H       
  46 H46            2.0514    -1.1620     2.3205 H       
  47 H47            5.6918     2.3657    -0.2097 H       
  48 H48            6.7827     6.9732     1.1774 H       
  49 H49            4.4691     6.1538     1.3516 H       
  50 H50            7.4362     5.5330    -1.9639 H       
  51 H51            8.2281     6.3943    -4.1235 H       
  52 H52           -2.2226     1.1035     2.4459 H       
  53 H53           11.0948     6.4036     0.9876 H       
  54 H54           13.2848     7.4227     0.6735 H       
  55 H55           12.4768     8.0711    -3.4724 H       
  56 H56           14.5541     9.0380     0.3557 H       
  57 H57           15.2419     7.4418    -0.0280 H       
  58 H58           16.0054     8.9169    -0.6678 H       
  59 H59           -1.4844    -2.1541     0.1992 H       
  60 H60            0.7827    -0.6932    -0.8728 H       
  61 H61           -1.3749     0.7509    -0.7193 H       
  62 H62           -2.0328    -0.5762    -1.7064 H       
  63 H63           -2.8057    -0.1488    -0.1610 H       
  64 H64           -4.6024     1.6499     2.1379 H       
  65 H65           -5.3193     2.9895     0.2018 H       
  66 H66           -3.6596     3.7877    -1.4307 H       
  67 H67           -1.2764     3.2532    -1.1278 H       
  68 H68            1.0675    -2.0724     1.5070 H       
  69 H69            0.7655    -1.1844     3.0198 H       
  70 H70           -0.3533    -2.4689     2.5033 H       
@<TRIPOS>BOND
   1    1    2 1
   2    1    5 am
   3    1   25 1
   4    2    3 1
   5    2    9 1
   6    3    4 2
   7    3   10 1
   8    4    5 1
   9    4    6 1
  10    5   24 2
  11    6    7 2
  12    6    8 am
  13    8   11 1
  14    8   42 1
  15    9   34 1
  16    9   41 1
  17    9   43 1
  18   10   44 1
  19   10   45 1
  20   10   46 1
  21   11   12 ar
  22   11   16 ar
  23   12   13 ar
  24   12   47 1
  25   13   14 ar
  26   13   33 1
  27   14   15 ar
  28   14   17 1
  29   15   16 ar
  30   15   48 1
  31   16   49 1
  32   17   21 1
  33   18   19 ar
  34   18   23 ar
  35   19   20 ar
  36   19   30 ar
  37   20   21 ar
  38   20   27 ar
  39   21   22 ar
  40   22   23 ar
  41   22   50 1
  42   23   51 1
  43   25   26 ar
  44   25   40 ar
  45   26   37 ar
  46   26   52 1
  47   27   28 ar
  48   27   53 1
  49   28   29 ar
  50   28   54 1
  51   29   30 ar
  52   29   32 1
  53   30   55 1
  54   31   32 1
  55   31   56 1
  56   31   57 1
  57   31   58 1
  58   34   35 1
  59   34   36 1
  60   34   59 1
  61   35   60 1
  62   36   61 1
  63   36   62 1
  64   36   63 1
  65   37   38 ar
  66   37   64 1
  67   38   39 ar
  68   38   65 1
  69   39   40 ar
  70   39   66 1
  71   40   67 1
  72   41   68 1
  73   41   69 1
  74   41   70 1

#	End of record

