#	Name: ASD01810289
#	Creating user name:	WinNT
#	Creation time:	15. 06. 2019 19:24

#	Modifying user name:	WinNT
#	Modification time:	15. 06. 2019 19:24

#	Program:	/corina/corina34_cracker 3.40 0067  02.08.2006

@<TRIPOS>MOLECULE
ASD01810289
  43   46    0    0    0
SMALL
NO_CHARGES


@<TRIPOS>ATOM
   1 C1             1.1607     2.2507    -0.5162 C.ar    
   2 C2             0.7835     0.9167    -0.5007 C.ar    
   3 C3             1.7248    -0.0809    -0.3479 C.ar    
   4 C4             3.0718     0.2478    -0.2073 C.ar    
   5 C5             3.4528     1.6004    -0.2237 C.ar    
   6 C6             2.4891     2.6001    -0.3788 C.ar    
   7 N7             4.0215    -0.7402    -0.0534 N.pl3   
   8 C8             5.3268    -0.4761     0.0860 C.2     
   9 C9             5.8204     0.8129     0.0855 C.2     
  10 C10            4.8802     1.9344    -0.0742 C.2     
  11 O11            5.2660     3.0904    -0.0812 O.2     
  12 C12            3.5837    -2.1382    -0.0416 C.3     
  13 C13            3.4399    -2.6316    -1.4583 C.ar    
  14 C14            4.5229    -2.5802    -2.3204 C.ar    
  15 C15            4.3951    -3.0319    -3.6209 C.ar    
  16 C16            3.1750    -3.5386    -4.0622 C.ar    
  17 C17            2.0894    -3.5875    -3.1895 C.ar    
  18 C18            2.2286    -3.1394    -1.8916 C.ar    
  19 C19            3.0313    -4.0244    -5.4568 C.ar    
  20 C20            7.2603     1.0615     0.2417 C.2     
  21 O21            7.7303     2.3250     0.2396 O.3     
  22 O22            8.0276     0.1278     0.3729 O.2     
  23 F23            5.7051    -2.0878    -1.8901 F       
  24 F24            2.8552     3.9005    -0.3949 F       
  25 F25            1.3404    -1.3760    -0.3340 F       
  26 C26            1.8159    -4.5356    -5.9162 C.ar    
  27 C27            1.7257    -4.9773    -7.2241 C.ar    
  28 N28            2.7694    -4.9193    -8.0314 N.ar    
  29 C29            3.9345    -4.4430    -7.6341 C.ar    
  30 C30            4.1081    -3.9772    -6.3480 C.ar    
  31 F31            0.5556    -5.4745    -7.6811 F       
  32 H32            0.4126     3.0197    -0.6408 H       
  33 H33           -0.2588     0.6553    -0.6091 H       
  34 H34            6.0163    -1.2991     0.2032 H       
  35 H35            4.3221    -2.7458     0.4816 H       
  36 H36            2.6235    -2.2139     0.4687 H       
  37 H37            5.2394    -2.9915    -4.2933 H       
  38 H38            1.1415    -3.9796    -3.5273 H       
  39 H39            1.3874    -3.1773    -1.2154 H       
  40 H40            8.6847     2.4386     0.3455 H       
  41 H41            0.9593    -4.5857    -5.2603 H       
  42 H42            4.7622    -4.4138    -8.3273 H       
  43 H43            5.0647    -3.5891    -6.0308 H       
@<TRIPOS>BOND
   1    1    2 ar
   2    1    6 ar
   3    1   32 1
   4    2    3 ar
   5    2   33 1
   6    3    4 ar
   7    3   25 1
   8    4    5 ar
   9    4    7 1
  10    5    6 ar
  11    5   10 1
  12    6   24 1
  13    7    8 1
  14    7   12 1
  15    8    9 2
  16    8   34 1
  17    9   10 1
  18    9   20 1
  19   10   11 2
  20   12   13 1
  21   12   35 1
  22   12   36 1
  23   13   14 ar
  24   13   18 ar
  25   14   15 ar
  26   14   23 1
  27   15   16 ar
  28   15   37 1
  29   16   17 ar
  30   16   19 1
  31   17   18 ar
  32   17   38 1
  33   18   39 1
  34   19   26 ar
  35   19   30 ar
  36   20   21 1
  37   20   22 2
  38   21   40 1
  39   26   27 ar
  40   26   41 1
  41   27   28 ar
  42   27   31 1
  43   28   29 ar
  44   29   30 ar
  45   29   42 1
  46   30   43 1

#	End of record

