#	Name: ASD02440049
#	Creating user name:	WinNT
#	Creation time:	15. 06. 2019 20:21

#	Modifying user name:	WinNT
#	Modification time:	15. 06. 2019 20:21

#	Program:	/corina/corina34_cracker 3.40 0067  02.08.2006

@<TRIPOS>MOLECULE
ASD02440049
  51   54    0    0    0
SMALL
NO_CHARGES


@<TRIPOS>ATOM
   1 N1             0.0454     1.4583     0.6745 N.am    
   2 C2             0.0499     0.1310     0.8430 C.2     
   3 S3             1.7178    -0.4140     0.5938 S.3     
   4 C4             2.3502     1.2115     0.2655 C.2     
   5 C5             1.1739     2.0816     0.3792 C.2     
   6 S6            -1.2976    -0.8527     1.2270 S.2     
   7 C7            -1.2017     2.2150     0.8100 C.3     
   8 C8            -1.3711     2.6518     2.2423 C.ar    
   9 O9             1.2324     3.2860     0.2139 O.2     
  10 C10            3.6276     1.5679    -0.0242 C.2     
  11 C11            4.7060     0.5758     0.0705 C.ar    
  12 C12            5.9067     0.7746    -0.6223 C.ar    
  13 C13            6.9145    -0.1586    -0.5296 C.ar    
  14 C14            6.7419    -1.2968     0.2496 C.ar    
  15 C15            5.5522    -1.4993     0.9395 C.ar    
  16 C16            4.5398    -0.5699     0.8586 C.ar    
  17 C17           -2.1933     2.2261     4.4509 C.ar    
  18 C18           -2.0343     1.8322     3.1384 C.ar    
  19 C19           -0.8577     3.8681     2.6566 C.ar    
  20 C20           -1.0092     4.2741     3.9663 C.ar    
  21 C21           -1.6823     3.4546     4.8745 C.ar    
  22 C22           -1.8492     3.8832     6.2783 C.2     
  23 O23           -2.4320     3.1664     7.0670 O.2     
  24 O24           -1.3550     5.0690     6.6837 O.3     
  25 O25            7.7389    -2.2143     0.3368 O.3     
  26 C26            7.4958    -3.3607     1.1546 C.3     
  27 C27            8.7044    -4.2606     1.1302 C.ar    
  28 C28            9.7091    -4.0940     2.0649 C.ar    
  29 C29           10.8178    -4.9194     2.0425 C.ar    
  30 C30           10.9215    -5.9116     1.0856 C.ar    
  31 C31            9.9164    -6.0788     0.1514 C.ar    
  32 C32            8.8057    -5.2562     0.1765 C.ar    
  33 H33           -1.1663     3.0924     0.1643 H       
  34 H34           -2.0425     1.5845     0.5206 H       
  35 H35            3.8508     2.5811    -0.3242 H       
  36 H36            6.0416     1.6582    -1.2285 H       
  37 H37            7.8409    -0.0063    -1.0635 H       
  38 H38            5.4234    -2.3853     1.5434 H       
  39 H39            3.6159    -0.7281     1.3950 H       
  40 H40           -2.7118     1.5858     5.1491 H       
  41 H41           -2.4287     0.8822     2.8095 H       
  42 H42           -0.3370     4.5009     1.9532 H       
  43 H43           -0.6077     5.2236     4.2884 H       
  44 H44           -1.4889     5.3063     7.6116 H       
  45 H45            7.3008    -3.0419     2.1785 H       
  46 H46            6.6312    -3.9031     0.7721 H       
  47 H47            9.6281    -3.3188     2.8125 H       
  48 H48           11.6030    -4.7888     2.7723 H       
  49 H49           11.7880    -6.5560     1.0677 H       
  50 H50            9.9976    -6.8538    -0.5964 H       
  51 H51            8.0187    -5.3891    -0.5510 H       
@<TRIPOS>BOND
   1    1    2 am
   2    1    5 am
   3    1    7 1
   4    2    3 1
   5    2    6 2
   6    3    4 1
   7    4    5 1
   8    4   10 2
   9    5    9 2
  10    7    8 1
  11    7   33 1
  12    7   34 1
  13    8   19 ar
  14    8   18 ar
  15   10   11 1
  16   10   35 1
  17   11   12 ar
  18   11   16 ar
  19   12   13 ar
  20   12   36 1
  21   13   14 ar
  22   13   37 1
  23   14   15 ar
  24   14   25 1
  25   15   16 ar
  26   15   38 1
  27   16   39 1
  28   17   18 ar
  29   17   21 ar
  30   17   40 1
  31   18   41 1
  32   19   20 ar
  33   19   42 1
  34   20   21 ar
  35   20   43 1
  36   21   22 1
  37   22   23 2
  38   22   24 1
  39   24   44 1
  40   25   26 1
  41   26   27 1
  42   26   45 1
  43   26   46 1
  44   27   28 ar
  45   27   32 ar
  46   28   29 ar
  47   28   47 1
  48   29   30 ar
  49   29   48 1
  50   30   31 ar
  51   30   49 1
  52   31   32 ar
  53   31   50 1
  54   32   51 1

#	End of record

