#	Name: ASD03092093
#	Creating user name:	WinNT
#	Creation time:	15. 06. 2019 20:31

#	Modifying user name:	WinNT
#	Modification time:	15. 06. 2019 20:31

#	Program:	/corina/corina34_cracker 3.40 0067  02.08.2006

@<TRIPOS>MOLECULE
ASD03092093
  43   45    0    0    0
SMALL
NO_CHARGES


@<TRIPOS>ATOM
   1 N1             0.1279     1.3357     0.0453 N.am    
   2 C2            -0.0115    -0.0269    -0.0084 C.2     
   3 C3            -1.3468    -0.2978    -0.0530 C.2     
   4 C4            -2.0347     0.9260    -0.0258 C.2     
   5 N5            -1.1552     1.8975     0.0389 N.2     
   6 N6            -3.4231     1.0827    -0.0567 N.pl3   
   7 C7            -3.9863     2.3523     0.0942 C.ar    
   8 C8            -5.2407     2.6247    -0.4362 C.ar    
   9 C9            -5.7950     3.8818    -0.2844 C.ar    
  10 C10           -5.1012     4.8678     0.3950 C.ar    
  11 C11           -3.2951     3.3435     0.7804 C.ar    
  12 C12            1.0844    -1.0198    -0.0169 C.ar    
  13 C13            1.2915     2.0136     0.1004 C.2     
  14 C14            0.9602    -2.2341     0.6679 C.ar    
  15 C15            2.0070    -3.1316     0.6329 C.ar    
  16 N16            3.1124    -2.8577    -0.0335 N.ar    
  17 C17            3.2706    -1.7255    -0.6923 C.ar    
  18 C18            2.2725    -0.7738    -0.7150 C.ar    
  19 C19            4.5572    -1.4709    -1.4344 C.3     
  20 C20           -3.8520     4.5988     0.9240 C.ar    
  21 Cl21          -7.3626     4.2243    -0.9472 Cl      
  22 N22            1.2909     3.3598     0.0350 N.am    
  23 O23            2.3411     1.4110     0.2091 O.2     
  24 C24            2.5557     4.0966     0.0949 C.3     
  25 C25            1.8868    -4.4426     1.3663 C.3     
  26 H26           -1.7956    -1.2790    -0.1010 H       
  27 H27           -3.9957     0.3100    -0.1831 H       
  28 H28           -5.7821     1.8554    -0.9667 H       
  29 H29           -5.5360     5.8494     0.5121 H       
  30 H30           -2.3213     3.1333     1.1974 H       
  31 H31            0.0585    -2.4648     1.2158 H       
  32 H32            2.4087     0.1507    -1.2565 H       
  33 H33            4.4679    -1.8433    -2.4549 H       
  34 H34            4.7591    -0.3999    -1.4548 H       
  35 H35            5.3754    -1.9853    -0.9302 H       
  36 H36           -3.3132     5.3705     1.4537 H       
  37 H37            0.4530     3.8407    -0.0518 H       
  38 H38            3.1928     3.7928    -0.7357 H       
  39 H39            2.3566     5.1662     0.0278 H       
  40 H40            3.0587     3.8790     1.0371 H       
  41 H41            1.4577    -5.1926     0.7019 H       
  42 H42            2.8746    -4.7684     1.6923 H       
  43 H43            1.2412    -4.3150     2.2352 H       
@<TRIPOS>BOND
   1    1    2 1
   2    1   13 am
   3    1    5 1
   4    2    3 2
   5    2   12 1
   6    3    4 1
   7    3   26 1
   8    4    5 2
   9    4    6 1
  10    6    7 1
  11    6   27 1
  12    7    8 ar
  13    7   11 ar
  14    8    9 ar
  15    8   28 1
  16    9   10 ar
  17    9   21 1
  18   10   20 ar
  19   10   29 1
  20   11   20 ar
  21   11   30 1
  22   12   14 ar
  23   12   18 ar
  24   13   22 am
  25   13   23 2
  26   14   15 ar
  27   14   31 1
  28   15   16 ar
  29   15   25 1
  30   16   17 ar
  31   17   18 ar
  32   17   19 1
  33   18   32 1
  34   19   33 1
  35   19   34 1
  36   19   35 1
  37   20   36 1
  38   22   24 1
  39   22   37 1
  40   24   38 1
  41   24   39 1
  42   24   40 1
  43   25   41 1
  44   25   42 1
  45   25   43 1

#	End of record

