#	Name: ASD03092785
#	Creating user name:	WinNT
#	Creation time:	15. 06. 2019 20:33

#	Modifying user name:	WinNT
#	Modification time:	15. 06. 2019 20:33

#	Program:	/corina/corina34_cracker 3.40 0067  02.08.2006

@<TRIPOS>MOLECULE
ASD03092785
  66   69    0    0    0
SMALL
NO_CHARGES


@<TRIPOS>ATOM
   1 C1            -0.0187     1.5258     0.0104 C.3     
   2 C2             0.0021    -0.0041     0.0020 C.3     
   3 H3            -1.0203    -0.3820     0.0097 H       
   4 C4             0.7204    -0.4987    -1.2562 C.3     
   5 N5             0.8053    -1.9659    -1.2210 N.3     
   6 C6             1.5233    -2.4175    -0.0203 C.3     
   7 C7             0.7969    -1.9037     1.2256 C.3     
   8 H8            -0.2021    -2.3374     1.2693 H       
   9 C9             1.5825    -2.3032     2.4763 C.3     
  10 O10            0.6954    -0.4786     1.1594 O.3     
  11 C11            1.4068    -2.4597    -2.3784 C.ar    
  12 C12            1.8360    -1.5812    -3.3658 C.ar    
  13 C13            2.4314    -2.0682    -4.5127 C.ar    
  14 F14            2.8488    -1.2147    -5.4730 F       
  15 C15            2.6018    -3.4445    -4.6780 C.ar    
  16 C16            2.1699    -4.3223    -3.6840 C.ar    
  17 C17            2.3523    -5.8079    -3.8592 C.3     
  18 N18            3.7325    -6.1726    -3.5303 N.am    
  19 C19            4.1284    -7.4581    -3.6155 C.2     
  20 O20            3.3420    -8.3130    -3.9645 O.2     
  21 C21            5.5482    -7.8333    -3.2772 C.3     
  22 C22            5.7333    -9.3416    -3.4550 C.3     
  23 C23            6.1228    -9.7500    -4.8855 C.3     
  24 C24            7.0832   -10.7685    -4.2490 C.3     
  25 C25            7.1179    -9.8481    -3.0176 C.3     
  26 C26            1.5812    -3.8304    -2.5395 C.ar    
  27 C27            3.2400    -3.9713    -5.9077 C.ar    
  28 C28            2.5184    -4.7580    -6.8111 C.ar    
  29 C29            3.1511    -5.2277    -7.9430 C.ar    
  30 C30            2.3849    -6.0761    -8.9250 C.3     
  31 N31            4.4182    -4.9439    -8.1779 N.ar    
  32 C32            5.1345    -4.2054    -7.3517 C.ar    
  33 C33            6.5775    -3.9151    -7.6749 C.3     
  34 C34            4.5785    -3.6904    -6.1993 C.ar    
  35 H35            1.0039     1.9031     0.0027 H       
  36 H36           -0.5459     1.8868    -0.8726 H       
  37 H37           -0.5289     1.8773     0.9072 H       
  38 H38            0.1630    -0.1875    -2.1397 H       
  39 H39            1.7248    -0.0767    -1.2915 H       
  40 H40            1.5520    -3.5070    -0.0015 H       
  41 H41            2.5406    -2.0263    -0.0358 H       
  42 H42            2.5809    -1.8679     2.4327 H       
  43 H43            1.0649    -1.9371     3.3629 H       
  44 H44            1.6615    -3.3893     2.5242 H       
  45 H45            1.7035    -0.5172    -3.2364 H       
  46 H46            1.6685    -6.3385    -3.1966 H       
  47 H47            2.1410    -6.0805    -4.8932 H       
  48 H48            4.3614    -5.4890    -3.2512 H       
  49 H49            6.2319    -7.3027    -3.9398 H       
  50 H50            5.7594    -7.5607    -2.2432 H       
  51 H51            4.9066    -9.9209    -3.0439 H       
  52 H52            5.3081   -10.2090    -5.4457 H       
  53 H53            6.6290    -8.9614    -5.4422 H       
  54 H54            6.6256   -11.7388    -4.0562 H       
  55 H55            8.0411   -10.8460    -4.7634 H       
  56 H56            7.8961    -9.0863    -3.0637 H       
  57 H57            7.1065   -10.3863    -2.0698 H       
  58 H58            1.2509    -4.5103    -1.7681 H       
  59 H59            1.4812    -4.9945    -6.6250 H       
  60 H60            1.9165    -5.4346    -9.6714 H       
  61 H61            3.0680    -6.7680    -9.4177 H       
  62 H62            1.6161    -6.6394    -8.3961 H       
  63 H63            6.6411    -2.9991    -8.2624 H       
  64 H64            7.1397    -3.7927    -6.7492 H       
  65 H65            6.9954    -4.7434    -8.2470 H       
  66 H66            5.1693    -3.0826    -5.5300 H       
@<TRIPOS>BOND
   1    1    2 1
   2    1   35 1
   3    1   36 1
   4    1   37 1
   5    2    3 1
   6    2   10 1
   7    2    4 1
   8    4    5 1
   9    4   38 1
  10    4   39 1
  11    5    6 1
  12    5   11 1
  13    6    7 1
  14    6   40 1
  15    6   41 1
  16    7    8 1
  17    7    9 1
  18    7   10 1
  19    9   42 1
  20    9   43 1
  21    9   44 1
  22   11   26 ar
  23   11   12 ar
  24   12   13 ar
  25   12   45 1
  26   13   14 1
  27   13   15 ar
  28   15   16 ar
  29   15   27 1
  30   16   17 1
  31   16   26 ar
  32   17   18 1
  33   17   46 1
  34   17   47 1
  35   18   19 am
  36   18   48 1
  37   19   20 2
  38   19   21 1
  39   21   22 1
  40   21   49 1
  41   21   50 1
  42   22   25 1
  43   22   23 1
  44   22   51 1
  45   23   24 1
  46   23   52 1
  47   23   53 1
  48   24   25 1
  49   24   54 1
  50   24   55 1
  51   25   56 1
  52   25   57 1
  53   26   58 1
  54   27   34 ar
  55   27   28 ar
  56   28   29 ar
  57   28   59 1
  58   29   30 1
  59   29   31 ar
  60   30   60 1
  61   30   61 1
  62   30   62 1
  63   31   32 ar
  64   32   33 1
  65   32   34 ar
  66   33   63 1
  67   33   64 1
  68   33   65 1
  69   34   66 1

#	End of record

