#	Name: ASD09080077
#	Creating user name:	WinNT
#	Creation time:	15. 06. 2019 21:20

#	Modifying user name:	WinNT
#	Modification time:	15. 06. 2019 21:20

#	Program:	/corina/corina34_cracker 3.40 0067  02.08.2006

@<TRIPOS>MOLECULE
ASD09080077
  56   58    0    0    0
SMALL
NO_CHARGES


@<TRIPOS>ATOM
   1 C1            -0.0167     1.3772     0.0096 C.ar    
   2 C2             0.0021    -0.0041     0.0020 C.ar    
   3 C3            -1.1962    -0.7147     0.0101 C.ar    
   4 C4            -2.4082    -0.0277     0.0258 C.ar    
   5 C5            -2.4165     1.3537     0.0333 C.ar    
   6 C6            -1.2232     2.0552     0.0306 C.ar    
   7 Cl7            1.4756     2.2642     0.0001 Cl      
   8 Cl8           -3.9258     2.2111     0.0523 Cl      
   9 C9            -1.1817    -2.1986     0.0015 C.ar    
  10 C10           -2.3800    -2.9096     0.0096 C.ar    
  11 C11            0.0301    -2.8859    -0.0204 C.ar    
  12 C12            0.0377    -4.2660    -0.0283 C.ar    
  13 C13           -1.1547    -4.9669    -0.0144 C.ar    
  14 C14           -2.3607    -4.2896     0.0016 C.ar    
  15 C15           -1.1400    -6.4738    -0.0231 C.3     
  16 C16           -1.1135    -6.9918     1.4163 C.3     
  17 N17           -2.3591    -6.6203     2.0920 N.am    
  18 C18           -0.9728    -8.5153     1.4074 C.3     
  19 C19            0.3281    -8.9033     0.7017 C.3     
  20 O20           -0.9481    -8.9992     2.7518 O.3     
  21 O21            1.4260    -8.2334     1.3245 O.3     
  22 C22           -2.3881    -6.5015     3.4342 C.2     
  23 O23           -1.3830    -6.7021     4.0826 O.2     
  24 C24           -3.6694    -6.1193     4.1293 C.3     
  25 C25           -3.4438    -6.0501     5.6499 C.3     
  26 C26           -3.7568    -4.6010     6.0763 C.3     
  27 C27           -4.7023    -4.0747     4.9681 C.3     
  28 C28           -4.1116    -4.7098     3.6848 C.3     
  29 C29            0.5278   -10.3938     0.8003 C.2     
  30 O30            1.4615   -10.8381     1.4253 O.2     
  31 O31           -0.3316   -11.2277     0.1938 O.3     
  32 H32            0.9441    -0.5322    -0.0105 H       
  33 H33           -3.3397    -0.5743     0.0318 H       
  34 H34           -1.2338     3.1351     0.0364 H       
  35 H35           -3.3222    -2.3818     0.0225 H       
  36 H36            0.9617    -2.3396    -0.0316 H       
  37 H37            0.9765    -4.7998    -0.0457 H       
  38 H38           -3.2888    -4.8418     0.0127 H       
  39 H39           -2.0339    -6.8430    -0.5257 H       
  40 H40           -0.2542    -6.8254    -0.5522 H       
  41 H41           -0.2680    -6.5520     1.9452 H       
  42 H42           -3.1630    -6.4598     1.5734 H       
  43 H43           -1.8183    -8.9552     0.8785 H       
  44 H44            0.2729    -8.6128    -0.3474 H       
  45 H45           -1.7433    -8.7890     3.2602 H       
  46 H46            1.5356    -8.4452     2.2616 H       
  47 H47           -4.4492    -6.8457     3.9002 H       
  48 H48           -4.1147    -6.7423     6.1587 H       
  49 H49           -2.4076    -6.2930     5.8850 H       
  50 H50           -4.2587    -4.5880     7.0439 H       
  51 H51           -2.8430    -4.0079     6.1115 H       
  52 H52           -5.7228    -4.4194     5.1352 H       
  53 H53           -4.6651    -2.9868     4.9131 H       
  54 H54           -3.2551    -4.1342     3.3338 H       
  55 H55           -4.8724    -4.7762     2.9071 H       
  56 H56           -0.1623   -12.1753     0.2853 H       
@<TRIPOS>BOND
   1    1    2 ar
   2    1    7 1
   3    1    6 ar
   4    2    3 ar
   5    2   32 1
   6    3    4 ar
   7    3    9 1
   8    4    5 ar
   9    4   33 1
  10    5    6 ar
  11    5    8 1
  12    6   34 1
  13    9   10 ar
  14    9   11 ar
  15   10   14 ar
  16   10   35 1
  17   11   12 ar
  18   11   36 1
  19   12   13 ar
  20   12   37 1
  21   13   14 ar
  22   13   15 1
  23   14   38 1
  24   15   16 1
  25   15   39 1
  26   15   40 1
  27   16   17 1
  28   16   18 1
  29   16   41 1
  30   17   22 am
  31   17   42 1
  32   18   19 1
  33   18   20 1
  34   18   43 1
  35   19   21 1
  36   19   29 1
  37   19   44 1
  38   20   45 1
  39   21   46 1
  40   22   23 2
  41   22   24 1
  42   24   25 1
  43   24   28 1
  44   24   47 1
  45   25   26 1
  46   25   48 1
  47   25   49 1
  48   26   27 1
  49   26   50 1
  50   26   51 1
  51   27   28 1
  52   27   52 1
  53   27   53 1
  54   28   54 1
  55   28   55 1
  56   29   30 2
  57   29   31 1
  58   31   56 1

#	End of record

