#	Name: ASD01913660
#	Creating user name:	WinNT
#	Creation time:	15. 06. 2019 20:02

#	Modifying user name:	WinNT
#	Modification time:	15. 06. 2019 20:02

#	Program:	/corina/corina34_cracker 3.40 0067  02.08.2006

@<TRIPOS>MOLECULE
ASD01913660
  39   41    0    0    0
SMALL
NO_CHARGES


@<TRIPOS>ATOM
   1 C1             0.0405     1.5165     0.0263 C.ar    
   2 C2             0.0768     0.1329    -0.0025 C.ar    
   3 C3            -1.1020    -0.5888    -0.0155 C.ar    
   4 C4            -2.3168     0.0705    -0.0002 C.ar    
   5 C5            -2.3543     1.4524     0.0285 C.ar    
   6 C6            -1.1771     2.1758     0.0478 C.ar    
   7 C7            -3.6795     2.1698     0.0446 C.3     
   8 O8            -4.0972     2.3685     1.3966 O.3     
   9 C9            -5.2783     3.0043     1.5885 C.ar    
  10 N10           -5.9808     3.4060     0.5405 N.ar    
  11 C11           -7.1339     4.0272     0.6750 C.ar    
  12 C12           -7.6586     4.2857     1.9418 C.ar    
  13 C13           -6.9389     3.8730     3.0732 C.ar    
  14 C14           -5.7382     3.2205     2.8840 C.ar    
  15 C15           -8.9509     4.9831     2.0894 C.2     
  16 N16           -9.6336     5.3755     0.9956 N.am    
  17 O17           -9.3997     5.2036     3.1978 O.2     
  18 F18            1.1920     2.2228     0.0390 F       
  19 C19          -10.8984     5.9606     1.1322 C.ar    
  20 C20          -11.8181     5.8827     0.0921 C.ar    
  21 C21          -13.0663     6.4618     0.2308 C.ar    
  22 C22          -13.3992     7.1177     1.4028 C.ar    
  23 C23          -12.4848     7.1964     2.4386 C.ar    
  24 C24          -11.2387     6.6146     2.3084 C.ar    
  25 Cl25         -14.9667     7.8437     1.5740 Cl      
  26 F26          -11.4926     5.2426    -1.0522 F       
  27 H27            1.0258    -0.3825    -0.0151 H       
  28 H28           -1.0739    -1.6682    -0.0379 H       
  29 H29           -3.2373    -0.4941    -0.0111 H       
  30 H30           -1.2066     3.2551     0.0706 H       
  31 H31           -3.5757     3.1358    -0.4494 H       
  32 H32           -4.4232     1.5709    -0.4811 H       
  33 H33           -7.6786     4.3400    -0.2036 H       
  34 H34           -7.3174     4.0581     4.0677 H       
  35 H35           -5.1576     2.8887     3.7320 H       
  36 H36           -9.2488     5.2526     0.1137 H       
  37 H37          -13.7815     6.4025    -0.5763 H       
  38 H38          -12.7475     7.7097     3.3518 H       
  39 H39          -10.5262     6.6769     3.1176 H       
@<TRIPOS>BOND
   1    1    2 ar
   2    1   18 1
   3    1    6 ar
   4    2    3 ar
   5    2   27 1
   6    3    4 ar
   7    3   28 1
   8    4    5 ar
   9    4   29 1
  10    5    6 ar
  11    5    7 1
  12    6   30 1
  13    7    8 1
  14    7   31 1
  15    7   32 1
  16    8    9 1
  17    9   10 ar
  18    9   14 ar
  19   10   11 ar
  20   11   12 ar
  21   11   33 1
  22   12   13 ar
  23   12   15 1
  24   13   14 ar
  25   13   34 1
  26   14   35 1
  27   15   16 am
  28   15   17 2
  29   16   19 1
  30   16   36 1
  31   19   20 ar
  32   19   24 ar
  33   20   21 ar
  34   20   26 1
  35   21   22 ar
  36   21   37 1
  37   22   23 ar
  38   22   25 1
  39   23   24 ar
  40   23   38 1
  41   24   39 1

#	End of record

