#	Name: ASD01915482
#	Creating user name:	WinNT
#	Creation time:	15. 06. 2019 20:05

#	Modifying user name:	WinNT
#	Modification time:	15. 06. 2019 20:05

#	Program:	/corina/corina34_cracker 3.40 0067  02.08.2006

@<TRIPOS>MOLECULE
ASD01915482
  36   38    0    0    0
SMALL
NO_CHARGES


@<TRIPOS>ATOM
   1 C1            -0.0167     1.3839     0.0097 C.ar    
   2 C2             0.0021    -0.0041     0.0020 C.ar    
   3 N3             1.1017     2.0842     0.0027 N.ar    
   4 C4             2.2829     1.5042    -0.0117 C.ar    
   5 C5             2.3850     0.1107    -0.0188 C.ar    
   6 C6             1.2262    -0.6640    -0.0125 C.ar    
   7 C7             3.5455     2.3269    -0.0221 C.3     
   8 C8             4.6385     1.6130     0.7693 C.3     
   9 N9             4.7948     0.2317     0.3214 N.am    
  10 C10            3.7255    -0.5106    -0.0317 C.2     
  11 O11            3.8627    -1.6740    -0.3557 O.2     
  12 O12           -1.1602    -0.7087     0.0091 O.3     
  13 C13           -2.3750     0.0438     0.0245 C.3     
  14 C14           -3.5502    -0.8996     0.0304 C.ar    
  15 C15           -4.0780    -1.3387     1.2301 C.ar    
  16 C16           -4.1039    -1.3214    -1.1640 C.ar    
  17 C17           -5.1819    -2.1867    -1.1586 C.ar    
  18 C18           -5.7059    -2.6306     0.0411 C.ar    
  19 C19           -5.1560    -2.2040     1.2355 C.ar    
  20 C20            6.1346    -0.3570     0.2544 C.3     
  21 H21           -0.9651     1.9006     0.0169 H       
  22 H22            1.2774    -1.7428    -0.0186 H       
  23 H23            3.8770     2.4679    -1.0509 H       
  24 H24            3.3478     3.2990     0.4295 H       
  25 H25            5.5818     2.1419     0.6335 H       
  26 H26            4.3755     1.6183     1.8271 H       
  27 H27           -2.4049     0.6671     0.9181 H       
  28 H28           -2.4216     0.6767    -0.8617 H       
  29 H29           -3.6480    -1.0059     2.1633 H       
  30 H30           -3.6945    -0.9745    -2.1013 H       
  31 H31           -5.6150    -2.5156    -2.0916 H       
  32 H32           -6.5484    -3.3063     0.0454 H       
  33 H33           -5.5654    -2.5508     2.1729 H       
  34 H34            6.3725    -0.8283     1.2080 H       
  35 H35            6.1636    -1.1050    -0.5379 H       
  36 H36            6.8647     0.4244     0.0432 H       
@<TRIPOS>BOND
   1    1    2 ar
   2    1    3 ar
   3    1   21 1
   4    2   12 1
   5    2    6 ar
   6    3    4 ar
   7    4    5 ar
   8    4    7 1
   9    5    6 ar
  10    5   10 1
  11    6   22 1
  12    7    8 1
  13    7   23 1
  14    7   24 1
  15    8    9 1
  16    8   25 1
  17    8   26 1
  18    9   10 am
  19    9   20 1
  20   10   11 2
  21   12   13 1
  22   13   14 1
  23   13   27 1
  24   13   28 1
  25   14   15 ar
  26   14   16 ar
  27   15   19 ar
  28   15   29 1
  29   16   17 ar
  30   16   30 1
  31   17   18 ar
  32   17   31 1
  33   18   19 ar
  34   18   32 1
  35   19   33 1
  36   20   34 1
  37   20   35 1
  38   20   36 1

#	End of record

