#	Name: ASD04170023
#	Creating user name:	WinNT
#	Creation time:	15. 06. 2019 20:48

#	Modifying user name:	WinNT
#	Modification time:	15. 06. 2019 20:48

#	Program:	/corina/corina34_cracker 3.40 0067  02.08.2006

@<TRIPOS>MOLECULE
ASD04170023
  36   38    0    0    0
SMALL
NO_CHARGES


@<TRIPOS>ATOM
   1 O1             0.7525    -0.3413     1.1704 O.3     
   2 C2             0.0021    -0.0041     0.0020 C.3     
   3 C3             0.7911    -0.4081    -1.2450 C.3     
   4 C4             0.0584     0.0899    -2.4929 C.3     
   5 C5             0.9829     1.0422    -3.2627 C.3     
   6 C6             2.2630     0.2810    -3.6317 C.3     
   7 C7             2.9248    -0.2234    -2.3474 C.3     
   8 N8             2.1319     0.1785    -1.1831 N.4     
   9 C9             2.0524     1.6383    -1.0920 C.3     
  10 C10            1.3617     2.2041    -2.3349 C.3     
  11 C11           -1.3150    -0.7362     0.0223 C.ar    
  12 C12           -2.4692    -0.0931    -0.3843 C.ar    
  13 C13           -3.6775    -0.7640    -0.3660 C.ar    
  14 C14           -3.7316    -2.0794     0.0594 C.ar    
  15 C15           -2.5761    -2.7225     0.4662 C.ar    
  16 C16           -1.3676    -2.0522     0.4420 C.ar    
  17 Cl17          -5.2489    -2.9226     0.0832 Cl      
  18 H18            0.9063    -1.2898     1.2789 H       
  19 H19           -0.1798     1.0705    -0.0154 H       
  20 H20            0.8746    -1.4942    -1.2840 H       
  21 H21           -0.2018    -0.7581    -3.1265 H       
  22 H22           -0.8475     0.6193    -2.1977 H       
  23 H23            0.4865     1.4050    -4.1627 H       
  24 H24            2.0130    -0.5659    -4.2707 H       
  25 H25            2.9463     0.9483    -4.1569 H       
  26 H26            2.9947    -1.3107    -2.3795 H       
  27 H27            3.9262     0.1994    -2.2663 H       
  28 H28            2.5910    -0.1615    -0.3514 H       
  29 H29            1.4832     1.9148    -0.2045 H       
  30 H30            3.0583     2.0513    -1.0177 H       
  31 H31            2.0409     2.8800    -2.8544 H       
  32 H32            0.4619     2.7436    -2.0390 H       
  33 H33           -2.4269     0.9338    -0.7160 H       
  34 H34           -4.5792    -0.2615    -0.6833 H       
  35 H35           -2.6178    -3.7493     0.7983 H       
  36 H36           -0.4655    -2.5541     0.7596 H       
@<TRIPOS>BOND
   1    1    2 1
   2    1   18 1
   3    2    3 1
   4    2   11 1
   5    2   19 1
   6    3    4 1
   7    3    8 1
   8    3   20 1
   9    4    5 1
  10    4   21 1
  11    4   22 1
  12    5    6 1
  13    5   10 1
  14    5   23 1
  15    6    7 1
  16    6   24 1
  17    6   25 1
  18    7    8 1
  19    7   26 1
  20    7   27 1
  21    8    9 1
  22    8   28 1
  23    9   10 1
  24    9   29 1
  25    9   30 1
  26   10   31 1
  27   10   32 1
  28   11   12 ar
  29   11   16 ar
  30   12   13 ar
  31   12   33 1
  32   13   14 ar
  33   13   34 1
  34   14   15 ar
  35   14   17 1
  36   15   16 ar
  37   15   35 1
  38   16   36 1

#	End of record

