#	Name: ASD09740001
#	Creating user name:	WinNT
#	Creation time:	15. 06. 2019 21:22

#	Modifying user name:	WinNT
#	Modification time:	15. 06. 2019 21:22

#	Program:	/corina/corina34_cracker 3.40 0067  02.08.2006

@<TRIPOS>MOLECULE
ASD09740001
  51   54    0    0    0
SMALL
NO_CHARGES


@<TRIPOS>ATOM
   1 C1             0.0009     1.5085     0.9185 C.2     
   2 C2            -0.0208     0.1610     1.0394 C.2     
   3 O3             1.2143    -0.2709     0.7497 O.3     
   4 N4             1.9575     0.6424     0.4752 N.2     
   5 C5             1.3416     1.7966     0.5395 C.2     
   6 C6             1.9243     3.1340     0.2712 C.2     
   7 O7             1.2035     4.1104     0.2141 O.2     
   8 N8             3.2534     3.2662     0.0908 N.am    
   9 C9             3.8130     4.5588    -0.3118 C.3     
  10 C10            4.1384     2.1171     0.2972 C.3     
  11 C11            3.8550     1.4944     1.6657 C.3     
  12 C12            4.7793     0.2944     1.8813 C.3     
  13 C13            4.5297    -0.7448     0.7865 C.3     
  14 C14            4.8131    -0.1221    -0.5820 C.3     
  15 C15            3.8888     1.0779    -0.7976 C.3     
  16 C16            3.2141     4.9775    -1.6560 C.3     
  17 C17            3.7985     6.3275    -2.0765 C.3     
  18 C18            3.4627     7.3804    -1.0184 C.3     
  19 C19            4.0616     6.9618     0.3258 C.3     
  20 C20            3.4772     5.6118     0.7462 C.3     
  21 C21           -1.2041    -0.6890     1.4248 C.3     
  22 C22           -1.6751    -1.7417     0.4193 C.3     
  23 C23           -0.9495    -2.1732     1.6954 C.3     
  24 H24           -0.8118     2.2035     1.0700 H       
  25 H25            4.8953     4.4722    -0.4075 H       
  26 H26            5.1767     2.4462     0.2558 H       
  27 H27            4.0328     2.2348     2.4457 H       
  28 H28            2.8167     1.1653     1.7071 H       
  29 H29            5.8176     0.6235     1.8399 H       
  30 H30            4.5773    -0.1492     2.8563 H       
  31 H31            5.1882    -1.5997     0.9401 H       
  32 H32            3.4913    -1.0739     0.8279 H       
  33 H33            5.8514     0.2070    -0.6233 H       
  34 H34            4.6353    -0.8625    -1.3619 H       
  35 H35            2.8505     0.7488    -0.7562 H       
  36 H36            4.0907     1.5215    -1.7725 H       
  37 H37            3.4533     4.2274    -2.4098 H       
  38 H38            2.1317     5.0641    -1.5604 H       
  39 H39            4.8809     6.2409    -2.1722 H       
  40 H40            3.3718     6.6257    -3.0341 H       
  41 H41            3.8791     8.3422    -1.3180 H       
  42 H42            2.3804     7.4670    -0.9228 H       
  43 H43            5.1440     6.8752     0.2301 H       
  44 H44            3.8224     7.7119     1.0795 H       
  45 H45            2.3948     5.6984     0.8419 H       
  46 H46            3.9039     5.3135     1.7039 H       
  47 H47           -1.9650    -0.1908     2.0255 H       
  48 H48           -2.7459    -1.9364     0.3589 H       
  49 H49           -1.1291    -1.8195    -0.5209 H       
  50 H50            0.0738    -2.5349     1.5947 H       
  51 H51           -1.5429    -2.6518     2.4744 H       
@<TRIPOS>BOND
   1    1    2 2
   2    1    5 1
   3    1   24 1
   4    2    3 1
   5    2   21 1
   6    3    4 1
   7    4    5 2
   8    5    6 1
   9    6    7 2
  10    6    8 am
  11    8    9 1
  12    8   10 1
  13    9   16 1
  14    9   20 1
  15    9   25 1
  16   10   11 1
  17   10   15 1
  18   10   26 1
  19   11   12 1
  20   11   27 1
  21   11   28 1
  22   12   13 1
  23   12   29 1
  24   12   30 1
  25   13   14 1
  26   13   31 1
  27   13   32 1
  28   14   15 1
  29   14   33 1
  30   14   34 1
  31   15   35 1
  32   15   36 1
  33   16   17 1
  34   16   37 1
  35   16   38 1
  36   17   18 1
  37   17   39 1
  38   17   40 1
  39   18   19 1
  40   18   41 1
  41   18   42 1
  42   19   20 1
  43   19   43 1
  44   19   44 1
  45   20   45 1
  46   20   46 1
  47   21   22 1
  48   21   23 1
  49   21   47 1
  50   22   23 1
  51   22   48 1
  52   22   49 1
  53   23   50 1
  54   23   51 1

#	End of record

