#	Name: ASD00840356
#	Creating user name:	WinNT
#	Creation time:	15. 06. 2019 18:38

#	Modifying user name:	WinNT
#	Modification time:	15. 06. 2019 18:38

#	Program:	/corina/corina34_cracker 3.40 0067  02.08.2006

@<TRIPOS>MOLECULE
ASD00840356
  96  101    0    0    0
SMALL
NO_CHARGES


@<TRIPOS>ATOM
   1 F1            -0.1033    -3.1507     4.7177 F       
   2 N2            -0.0149     1.3151     0.0239 N.ar    
   3 C3             0.0023    -0.0072     0.0102 C.ar    
   4 C4             1.2068    -0.6992    -0.0073 C.ar    
   5 C5             2.3928     0.0137    -0.0101 C.ar    
   6 C6             2.3318     1.4006     0.0047 C.ar    
   7 C7             1.0993     2.0222     0.0216 C.ar    
   8 C8             1.2215    -2.2060    -0.0224 C.3     
   9 C9             0.4764    -2.7314    -1.2306 C.2     
  10 N10            2.5991    -2.7045    -0.0124 N.am    
  11 C11            3.4464    -2.3633    -1.0034 C.2     
  12 N12            4.7400    -2.7368    -0.9424 N.am    
  13 O13            3.0439    -1.7186    -1.9523 O.2     
  14 C14            5.6548    -2.4755    -2.0640 C.3     
  15 C15            6.9055    -1.7773    -1.5195 C.3     
  16 N16            7.4741    -2.5794    -0.4281 N.3     
  17 C17            6.5399    -2.6814     0.7009 C.3     
  18 C18            5.2756    -3.4111     0.2499 C.3     
  19 C19            8.7676    -2.0353     0.0065 C.3     
  20 C20            9.2695    -2.8183     1.2228 C.3     
  21 C21           10.6448    -2.2871     1.6333 C.3     
  22 N22           11.5824    -2.4347     0.5128 N.3     
  23 C23           11.1457    -1.6533    -0.6513 C.3     
  24 C24            9.7854    -2.1656    -1.1301 C.3     
  25 C25           12.9456    -2.0634     0.9147 C.3     
  26 O26            0.7578    -2.5310    -2.3933 O.2     
  27 N27           -0.5548    -3.4617    -0.7742 N.am    
  28 C28            0.4481    -2.7550     1.1552 C.ar    
  29 C29           -0.6010    -3.4965     0.6216 C.ar    
  30 C30            0.6157    -2.6380     2.5174 C.ar    
  31 C31           -0.2663    -3.2634     3.3814 C.ar    
  32 C32           -1.3270    -4.0131     2.8629 C.ar    
  33 C33           -1.4908    -4.1279     1.4827 C.ar    
  34 C34           -1.0168    -5.8492    -2.0630 C.ar    
  35 C35            0.1621    -6.0110    -2.7759 C.ar    
  36 C36           -1.6947    -6.9566    -1.5908 C.ar    
  37 C37           -1.1989    -8.2251    -1.8279 C.ar    
  38 C38           -0.0239    -8.3891    -2.5383 C.ar    
  39 C39            0.6574    -7.2853    -3.0129 C.ar    
  40 H40            0.3614    -9.3811    -2.7222 H       
  41 O41            0.8305    -4.9234    -3.2418 O.3     
  42 C42            2.0374    -5.1654    -3.9677 C.3     
  43 C43            2.6437    -3.8316    -4.4084 C.3     
  44 C44           13.9288    -2.4621    -0.1877 C.3     
  45 C45           15.3487    -2.0754     0.2309 C.3     
  46 C46           -2.2445    -4.6637     3.7493 C.1     
  47 N47           -2.9724    -5.1798     4.4524 N.1     
  48 O48           -1.1675    -0.6945     0.0136 O.3     
  49 C49           -3.5780    -0.8666     0.0334 C.3     
  50 C50           -2.3717     0.0746     0.0322 C.3     
  51 S51           -1.6452    -4.2324    -1.7536 S.o2    
  52 O52           -2.8270    -4.4019    -0.9829 O.2     
  53 O53           -1.6207    -3.5474    -2.9984 O.2     
  54 H54            3.3442    -0.4972    -0.0231 H       
  55 H55            3.2388     1.9868     0.0033 H       
  56 H56            1.0463     3.1008     0.0328 H       
  57 H57            2.9014    -3.2801     0.7075 H       
  58 H58            5.9367    -3.4178    -2.5338 H       
  59 H59            5.1645    -1.8314    -2.7940 H       
  60 H60            7.6413    -1.6749    -2.3172 H       
  61 H61            6.6364    -0.7902    -1.1435 H       
  62 H62            7.0105    -3.2347     1.5136 H       
  63 H63            6.2759    -1.6817     1.0460 H       
  64 H64            4.5349    -3.3884     1.0491 H       
  65 H65            5.5183    -4.4442     0.0009 H       
  66 H66            8.6500    -0.9848     0.2726 H       
  67 H67            8.5699    -2.6942     2.0494 H       
  68 H68            9.3488    -3.8751     0.9679 H       
  69 H69           10.5621    -1.2338     1.9014 H       
  70 H70           11.0113    -2.8521     2.4904 H       
  71 H71           11.0607    -0.6030    -0.3726 H       
  72 H72           11.8761    -1.7580    -1.4536 H       
  73 H73            9.8728    -3.2121    -1.4220 H       
  74 H74            9.4544    -1.5753    -1.9845 H       
  75 H75           12.9966    -0.9864     1.0749 H       
  76 H76           13.2058    -2.5808     1.8381 H       
  77 H77            1.4367    -2.0577     2.9118 H       
  78 H78           -2.3100    -4.7069     1.0828 H       
  79 H79           -2.6126    -6.8311    -1.0357 H       
  80 H80           -1.7300    -9.0894    -1.4573 H       
  81 H81            1.5746    -7.4139    -3.5683 H       
  82 H82            2.7458    -5.6932    -3.3291 H       
  83 H83            1.8177    -5.7725    -4.8459 H       
  84 H84            1.9354    -3.3038    -5.0469 H       
  85 H85            2.8635    -3.2246    -3.5302 H       
  86 H86            3.5643    -4.0163    -4.9621 H       
  87 H87           13.8778    -3.5391    -0.3479 H       
  88 H88           13.6686    -1.9447    -1.1111 H       
  89 H89           15.3997    -0.9985     0.3911 H       
  90 H90           15.6089    -2.5928     1.1543 H       
  91 H91           16.0491    -2.3595    -0.5545 H       
  92 H92           -3.5563    -1.4860    -0.8632 H       
  93 H93           -3.5404    -1.5043     0.9166 H       
  94 H94           -4.4965    -0.2800     0.0476 H       
  95 H95           -2.3934     0.6941     0.9289 H       
  96 H96           -2.4093     0.7123    -0.8509 H       
@<TRIPOS>BOND
   1    1   31 1
   2    2    3 ar
   3    2    7 ar
   4    3    4 ar
   5    3   48 1
   6    4    5 ar
   7    4    8 1
   8    5    6 ar
   9    5   54 1
  10    6    7 ar
  11    6   55 1
  12    7   56 1
  13    8    9 1
  14    8   10 1
  15    8   28 1
  16    9   26 2
  17    9   27 am
  18   10   11 am
  19   10   57 1
  20   11   12 am
  21   11   13 2
  22   12   14 1
  23   12   18 1
  24   14   15 1
  25   14   58 1
  26   14   59 1
  27   15   16 1
  28   15   60 1
  29   15   61 1
  30   16   17 1
  31   16   19 1
  32   17   18 1
  33   17   62 1
  34   17   63 1
  35   18   64 1
  36   18   65 1
  37   19   20 1
  38   19   24 1
  39   19   66 1
  40   20   21 1
  41   20   67 1
  42   20   68 1
  43   21   22 1
  44   21   69 1
  45   21   70 1
  46   22   23 1
  47   22   25 1
  48   23   24 1
  49   23   71 1
  50   23   72 1
  51   24   73 1
  52   24   74 1
  53   25   44 1
  54   25   75 1
  55   25   76 1
  56   27   51 am
  57   27   29 1
  58   28   29 ar
  59   28   30 ar
  60   29   33 ar
  61   30   31 ar
  62   30   77 1
  63   31   32 ar
  64   32   33 ar
  65   32   46 1
  66   33   78 1
  67   34   35 ar
  68   34   36 ar
  69   34   51 1
  70   35   41 1
  71   35   39 ar
  72   36   37 ar
  73   36   79 1
  74   37   38 ar
  75   37   80 1
  76   38   39 ar
  77   38   40 1
  78   39   81 1
  79   41   42 1
  80   42   43 1
  81   42   82 1
  82   42   83 1
  83   43   84 1
  84   43   85 1
  85   43   86 1
  86   44   45 1
  87   44   87 1
  88   44   88 1
  89   45   89 1
  90   45   90 1
  91   45   91 1
  92   46   47 3
  93   48   50 1
  94   49   50 1
  95   49   92 1
  96   49   93 1
  97   49   94 1
  98   50   95 1
  99   50   96 1
 100   51   52 2
 101   51   53 2

#	End of record

