#	Name: ASD01200312
#	Creating user name:	WinNT
#	Creation time:	15. 06. 2019 19:08

#	Modifying user name:	WinNT
#	Modification time:	15. 06. 2019 19:08

#	Program:	/corina/corina34_cracker 3.40 0067  02.08.2006

@<TRIPOS>MOLECULE
ASD01200312
  56   59    0    0    0
SMALL
NO_CHARGES


@<TRIPOS>ATOM
   1 C1            -0.0167     1.3918     0.0039 C.ar    
   2 C2             0.0027    -0.0043    -0.0203 C.ar    
   3 C3            -1.1556    -0.7217    -0.0193 C.ar    
   4 C4            -2.3877    -0.0550     0.0063 C.ar    
   5 C5            -2.4137     1.3610     0.0308 C.ar    
   6 C6            -1.2123     2.0773     0.0350 C.ar    
   7 N7            -3.5533    -0.7203     0.0078 N.ar    
   8 C8            -4.6912    -0.0687     0.0316 C.ar    
   9 N9            -4.7646     1.2528     0.0547 N.ar    
  10 C10           -3.6740     2.0070     0.0559 C.ar    
  11 O11            1.1547     2.0814     0.0022 O.3     
  12 N12           -3.7644     3.3847     0.0797 N.pl3   
  13 C13           -5.0092     3.9981     0.1027 C.2     
  14 N14           -5.2054     5.2797     0.1259 N.2     
  15 C15           -6.4596     5.6916     0.1457 C.2     
  16 C16           -7.3654     4.7123     0.1388 C.2     
  17 S17           -6.5073     3.1743     0.0970 S.3     
  18 C18           -6.8374     7.1502     0.1746 C.3     
  19 P19           -7.0078     7.7677    -1.5322 P.3     
  20 O20           -5.7611     7.4958    -2.2820 O.2     
  21 C21            2.3580     1.3164     0.0976 C.3     
  22 C22            2.8140     0.8520    -1.2992 C.3     
  23 O23            4.0874     1.4661    -1.5591 O.3     
  24 C24            4.7039     1.7167    -0.2777 C.3     
  25 C25            3.5238     2.2009     0.6027 C.3     
  26 O26           -8.2403     7.0227    -2.2519 O.3     
  27 C27           -9.7858     6.3595    -3.9875 C.3     
  28 C28           -8.5665     7.2120    -3.6302 C.3     
  29 O29           -7.2820     9.3539    -1.5042 O.3     
  30 C30           -7.6284    11.6080    -2.3040 C.3     
  31 C31           -7.3582    10.1516    -2.6873 C.3     
  32 H32            0.9497    -0.5230    -0.0403 H       
  33 H33           -1.1241    -1.8011    -0.0384 H       
  34 H34           -1.2214     3.1571     0.0540 H       
  35 H35           -5.6101    -0.6361     0.0320 H       
  36 H36           -2.9580     3.9237     0.0804 H       
  37 H37           -8.4377     4.8401     0.1523 H       
  38 H38           -7.7846     7.2699     0.7005 H       
  39 H39           -6.0616     7.7164     0.6900 H       
  40 H40            2.2132     0.4599     0.7560 H       
  41 H41            2.9159    -0.2331    -1.3140 H       
  42 H42            2.0898     1.1686    -2.0498 H       
  43 H43            5.1340     0.8006     0.1270 H       
  44 H44            5.4635     2.4938    -0.3627 H       
  45 H45            3.3153     3.2564     0.4277 H       
  46 H46            3.7240     2.0152     1.6580 H       
  47 H47           -9.5592     5.3084    -3.8088 H       
  48 H48          -10.6322     6.6589    -3.3693 H       
  49 H49          -10.0346     6.5039    -5.0388 H       
  50 H50           -8.7932     8.2631    -3.8089 H       
  51 H51           -7.7202     6.9126    -4.2484 H       
  52 H52           -8.5716    11.6719    -1.7614 H       
  53 H53           -6.8196    11.9732    -1.6711 H       
  54 H54           -7.6865    12.2165    -3.2065 H       
  55 H55           -6.4150    10.0877    -3.2300 H       
  56 H56           -8.1670     9.7865    -3.3203 H       
@<TRIPOS>BOND
   1    1    2 ar
   2    1   11 1
   3    1    6 ar
   4    2    3 ar
   5    2   32 1
   6    3    4 ar
   7    3   33 1
   8    4    5 ar
   9    4    7 ar
  10    5    6 ar
  11    5   10 ar
  12    6   34 1
  13    7    8 ar
  14    8    9 ar
  15    8   35 1
  16    9   10 ar
  17   10   12 1
  18   11   21 1
  19   12   13 1
  20   12   36 1
  21   13   14 2
  22   13   17 1
  23   14   15 1
  24   15   16 2
  25   15   18 1
  26   16   17 1
  27   16   37 1
  28   18   19 1
  29   18   38 1
  30   18   39 1
  31   19   20 2
  32   19   26 1
  33   19   29 1
  34   21   22 1
  35   21   25 1
  36   21   40 1
  37   22   23 1
  38   22   41 1
  39   22   42 1
  40   23   24 1
  41   24   25 1
  42   24   43 1
  43   24   44 1
  44   25   45 1
  45   25   46 1
  46   26   28 1
  47   27   28 1
  48   27   47 1
  49   27   48 1
  50   27   49 1
  51   28   50 1
  52   28   51 1
  53   29   31 1
  54   30   31 1
  55   30   52 1
  56   30   53 1
  57   30   54 1
  58   31   55 1
  59   31   56 1

#	End of record

