#	Name: ASD00192123
#	Creating user name:	WinNT
#	Creation time:	15. 06. 2019 18:33

#	Modifying user name:	WinNT
#	Modification time:	15. 06. 2019 18:33

#	Program:	/corina/corina34_cracker 3.40 0067  02.08.2006

@<TRIPOS>MOLECULE
ASD00192123
  47   51    0    0    0
SMALL
NO_CHARGES


@<TRIPOS>ATOM
   1 C1            -0.0169     1.3868    -0.0322 C.ar    
   2 C2             0.0020    -0.0028    -0.0749 C.ar    
   3 C3             1.1800    -0.6888    -0.0880 C.ar    
   4 C4             2.3959     0.0112    -0.0582 C.ar    
   5 C5             2.3705     1.4253    -0.0148 C.ar    
   6 C6             1.1478     2.0989    -0.0023 C.ar    
   7 N7             3.5672    -0.6420    -0.0699 N.ar    
   8 C8             4.7269    -0.0217    -0.0424 C.ar    
   9 C9             4.8177     1.3787     0.0013 C.ar    
  10 C10            3.6459     2.1426     0.0159 C.ar    
  11 N11            5.8568     2.2823     0.0365 N.pl3   
  12 C12            5.3128     3.5192     0.0707 C.2     
  13 N13            4.0107     3.4325     0.0583 N.2     
  14 N14            5.8930    -0.7724    -0.0567 N.pl3   
  15 C15            6.0939     4.8072     0.1155 C.3     
  16 C16            6.4559     5.1340     1.5656 C.3     
  17 C17            7.2489     6.4416     1.6111 C.3     
  18 C18            8.5294     6.2905     0.7875 C.3     
  19 C19            8.1674     5.9637    -0.6627 C.3     
  20 C20            7.3743     4.6561    -0.7082 C.3     
  21 C21            7.1322    -0.1544    -0.1685 C.2     
  22 C22            5.8430    -2.2359     0.0522 C.3     
  23 C23            6.9045    -2.6921     1.0221 C.2     
  24 C24            8.0114    -1.9669     1.1847 C.2     
  25 C25            8.1919    -0.7239     0.4309 C.2     
  26 Cl26           9.2386    -2.4936     2.2940 Cl      
  27 Cl27           9.7618     0.0069     0.3087 Cl      
  28 H28           -0.9625     1.9085    -0.0271 H       
  29 H29           -0.9307    -0.5468    -0.0976 H       
  30 H30            1.1774    -1.7683    -0.1209 H       
  31 H31            1.1232     3.1781     0.0311 H       
  32 H32            6.8033     2.0703     0.0372 H       
  33 H33            5.4887     5.6138    -0.2985 H       
  34 H34            5.5436     5.2417     2.1524 H       
  35 H35            7.0611     4.3275     1.9796 H       
  36 H36            6.6437     7.2482     1.1971 H       
  37 H37            7.5068     6.6744     2.6443 H       
  38 H38            9.0943     7.2221     0.8198 H       
  39 H39            9.1346     5.4839     1.2014 H       
  40 H40            7.5622     6.7702    -1.0767 H       
  41 H41            9.0796     5.8560    -1.2495 H       
  42 H42            7.9795     3.8495    -0.2942 H       
  43 H43            7.1164     4.4233    -1.7414 H       
  44 H44            7.2418     0.7642    -0.7257 H       
  45 H45            4.8616    -2.5414     0.4151 H       
  46 H46            6.0268    -2.6810    -0.9257 H       
  47 H47            6.7678    -3.6042     1.5839 H       
@<TRIPOS>BOND
   1    1    2 ar
   2    1    6 ar
   3    1   28 1
   4    2    3 ar
   5    2   29 1
   6    3    4 ar
   7    3   30 1
   8    4    5 ar
   9    4    7 ar
  10    5    6 ar
  11    5   10 ar
  12    6   31 1
  13    7    8 ar
  14    8    9 ar
  15    8   14 1
  16    9   10 ar
  17    9   11 1
  18   10   13 1
  19   11   12 1
  20   11   32 1
  21   12   13 2
  22   12   15 1
  23   14   21 1
  24   14   22 1
  25   15   16 1
  26   15   20 1
  27   15   33 1
  28   16   17 1
  29   16   34 1
  30   16   35 1
  31   17   18 1
  32   17   36 1
  33   17   37 1
  34   18   19 1
  35   18   38 1
  36   18   39 1
  37   19   20 1
  38   19   40 1
  39   19   41 1
  40   20   42 1
  41   20   43 1
  42   21   25 2
  43   21   44 1
  44   22   23 1
  45   22   45 1
  46   22   46 1
  47   23   24 2
  48   23   47 1
  49   24   25 1
  50   24   26 1
  51   25   27 1

#	End of record

