#	Name: ASD03180042
#	Creating user name:	WinNT
#	Creation time:	15. 06. 2019 20:33

#	Modifying user name:	WinNT
#	Modification time:	15. 06. 2019 20:33

#	Program:	/corina/corina34_cracker 3.40 0067  02.08.2006

@<TRIPOS>MOLECULE
ASD03180042
  39   41    0    0    0
SMALL
NO_CHARGES


@<TRIPOS>ATOM
   1 Br1            4.8895     3.7573    -4.3832 Br      
   2 Cl2           -3.2602     3.1134     5.0922 Cl      
   3 S3            -0.0172     1.4168     0.0098 S.o2    
   4 S4            -2.0207     3.2463    -3.2629 S.3     
   5 O5             0.0021    -0.0041     0.0020 O.2     
   6 O6             1.1617     2.2101     0.0028 O.2     
   7 O7             0.2841     5.6714    -2.8406 O.3     
   8 N8            -0.9002     1.8797    -1.3124 N.am    
   9 C9            -0.7461     3.1994    -1.9428 C.3     
  10 C10           -1.8904     1.0073    -1.9400 C.3     
  11 C11           -3.0242     1.8702    -2.5601 C.3     
  12 C12            0.6310     3.3373    -2.5393 C.ar    
  13 C13           -0.9297     1.8941     1.4396 C.ar    
  14 C14            1.0827     4.5786    -2.9627 C.ar    
  15 C15            1.4465     2.2284    -2.6594 C.ar    
  16 C16           -1.8430     1.0206     1.9998 C.ar    
  17 C17           -0.7278     3.1398     2.0040 C.ar    
  18 C18            2.3509     4.7028    -3.5114 C.ar    
  19 C19            2.7099     2.3538    -3.2059 C.ar    
  20 C20            3.1609     3.5898    -3.6349 C.ar    
  21 C21           -2.5590     1.3945     3.1213 C.ar    
  22 C22           -1.4426     3.5145     3.1260 C.ar    
  23 C23           -2.3612     2.6431     3.6836 C.ar    
  24 C24            0.8147     6.9171    -3.2974 C.3     
  25 H25           -0.9254     3.9904    -1.2147 H       
  26 H26           -1.4119     0.4190    -2.7231 H       
  27 H27           -2.3120     0.3378    -1.1902 H       
  28 H28           -3.7117     2.2311    -1.7950 H       
  29 H29           -3.5544     1.3263    -3.3418 H       
  30 H30            1.0965     1.2627    -2.3257 H       
  31 H31           -1.9973     0.0460     1.5609 H       
  32 H32           -0.0111     3.8203     1.5683 H       
  33 H33            2.7046     5.6681    -3.8421 H       
  34 H34            3.3459     1.4859    -3.2987 H       
  35 H35           -3.2730     0.7123     3.5585 H       
  36 H36           -1.2848     4.4877     3.5669 H       
  37 H37            1.0507     6.8440    -4.3591 H       
  38 H38            0.0774     7.7048    -3.1426 H       
  39 H39            1.7208     7.1527    -2.7392 H       
@<TRIPOS>BOND
   1    1   20 1
   2    2   23 1
   3    3    5 2
   4    3    6 2
   5    3    8 am
   6    3   13 1
   7    4    9 1
   8    4   11 1
   9    7   14 1
  10    7   24 1
  11    8    9 1
  12    8   10 1
  13    9   12 1
  14    9   25 1
  15   10   11 1
  16   10   26 1
  17   10   27 1
  18   11   28 1
  19   11   29 1
  20   12   14 ar
  21   12   15 ar
  22   13   16 ar
  23   13   17 ar
  24   14   18 ar
  25   15   19 ar
  26   15   30 1
  27   16   21 ar
  28   16   31 1
  29   17   22 ar
  30   17   32 1
  31   18   20 ar
  32   18   33 1
  33   19   20 ar
  34   19   34 1
  35   21   23 ar
  36   21   35 1
  37   22   23 ar
  38   22   36 1
  39   24   37 1
  40   24   38 1
  41   24   39 1

#	End of record

