#	Name: ASD01850099
#	Creating user name:	WinNT
#	Creation time:	15. 06. 2019 19:38

#	Modifying user name:	WinNT
#	Modification time:	15. 06. 2019 19:38

#	Program:	/corina/corina34_cracker 3.40 0067  02.08.2006

@<TRIPOS>MOLECULE
ASD01850099
  48   52    0    0    0
SMALL
NO_CHARGES


@<TRIPOS>ATOM
   1 C1             0.1479     1.0702    -0.1534 C.ar    
   2 C2             0.3400    -0.2949    -0.0372 C.ar    
   3 C3             1.6109    -0.8068     0.1262 C.ar    
   4 C4             2.7065     0.0545     0.1742 C.ar    
   5 C5             2.5003     1.4361     0.0739 C.ar    
   6 C6             1.2294     1.9333    -0.0978 C.ar    
   7 C7             4.1586    -0.1871     0.3132 C.2     
   8 N8             4.8249     0.9545     0.1453 N.am    
   9 C9             3.8527     2.0701     0.2180 C.3     
  10 C10            6.0895     1.6478    -0.1633 C.3     
  11 C11            5.6436     2.7487    -1.1571 C.3     
  12 N12            4.2000     2.9497    -0.9034 N.am    
  13 C13            3.3694     3.7755    -1.5703 C.2     
  14 C14            3.9066     4.6932    -2.5957 C.ar    
  15 C15            3.0729     5.6403    -3.1939 C.ar    
  16 C16            3.5806     6.4956    -4.1513 C.ar    
  17 C17            4.9171     6.4143    -4.5186 C.ar    
  18 C18            5.7471     5.4750    -3.9271 C.ar    
  19 C19            5.2511     4.6203    -2.9659 C.ar    
  20 O20            2.1782     3.7652    -1.3279 O.2     
  21 C21            3.9669     2.8039     1.5557 C.3     
  22 C22            2.9501     3.9699     1.6306 C.3     
  23 O23            4.6682    -1.2658     0.5459 O.2     
  24 F24            5.4100     7.2531    -5.4559 F       
  25 F25            2.7760     7.4125    -4.7319 F       
  26 C26            2.7426     4.1944     3.1427 C.3     
  27 C27            3.1072     2.8708     3.8376 C.3     
  28 C28            3.5235     1.8882     2.7236 C.3     
  29 H29           -0.8482     1.4637    -0.2925 H       
  30 H30           -0.5082    -0.9625    -0.0741 H       
  31 H31            1.7569    -1.8730     0.2171 H       
  32 H32            1.0748     2.9982    -0.1901 H       
  33 H33            6.5170     2.0900     0.7366 H       
  34 H34            6.7983     0.9666    -0.6342 H       
  35 H35            6.1918     3.6717    -0.9682 H       
  36 H36            5.8036     2.4176    -2.1832 H       
  37 H37            2.0332     5.7034    -2.9085 H       
  38 H38            6.7859     5.4156    -4.2166 H       
  39 H39            5.8995     3.8890    -2.5062 H       
  40 H40            4.9830     3.1669     1.7100 H       
  41 H41            3.3617     4.8654     1.1649 H       
  42 H42            2.0110     3.6884     1.1543 H       
  43 H43            3.3955     4.9931     3.4946 H       
  44 H44            1.7015     4.4470     3.3433 H       
  45 H45            3.9370     3.0272     4.5269 H       
  46 H46            2.2429     2.4811     4.3755 H       
  47 H47            2.6769     1.2705     2.4239 H       
  48 H48            4.3535     1.2645     3.0556 H       
@<TRIPOS>BOND
   1    1    2 ar
   2    1    6 ar
   3    1   29 1
   4    2    3 ar
   5    2   30 1
   6    3    4 ar
   7    3   31 1
   8    4    5 ar
   9    4    7 1
  10    5    6 ar
  11    5    9 1
  12    6   32 1
  13    7    8 am
  14    7   23 2
  15    8    9 1
  16    8   10 1
  17    9   21 1
  18    9   12 1
  19   10   11 1
  20   10   33 1
  21   10   34 1
  22   11   12 1
  23   11   35 1
  24   11   36 1
  25   12   13 am
  26   13   14 1
  27   13   20 2
  28   14   15 ar
  29   14   19 ar
  30   15   16 ar
  31   15   37 1
  32   16   17 ar
  33   16   25 1
  34   17   18 ar
  35   17   24 1
  36   18   19 ar
  37   18   38 1
  38   19   39 1
  39   21   22 1
  40   21   28 1
  41   21   40 1
  42   22   26 1
  43   22   41 1
  44   22   42 1
  45   26   27 1
  46   26   43 1
  47   26   44 1
  48   27   28 1
  49   27   45 1
  50   27   46 1
  51   28   47 1
  52   28   48 1

#	End of record

