#	Name: ASD00840220
#	Creating user name:	WinNT
#	Creation time:	15. 06. 2019 18:37

#	Modifying user name:	WinNT
#	Modification time:	15. 06. 2019 18:37

#	Program:	/corina/corina34_cracker 3.40 0067  02.08.2006

@<TRIPOS>MOLECULE
ASD00840220
  91   96    0    0    0
SMALL
NO_CHARGES


@<TRIPOS>ATOM
   1 N1            -0.0144     1.3151     0.0259 N.ar    
   2 C2             0.0027    -0.0072     0.0114 C.ar    
   3 C3             1.2070    -0.6994    -0.0064 C.ar    
   4 C4             2.3931     0.0133    -0.0087 C.ar    
   5 C5             2.3323     1.4001     0.0068 C.ar    
   6 C6             1.1000     2.0220     0.0241 C.ar    
   7 C7             1.2215    -2.2063    -0.0224 C.3     
   8 C8             0.4763    -2.7313    -1.2310 C.2     
   9 N9             2.5988    -2.7054    -0.0115 N.am    
  10 C10            3.4472    -2.3639    -1.0016 C.2     
  11 N11            4.7405    -2.7378    -0.9396 N.am    
  12 O12            3.0456    -1.7187    -1.9507 O.2     
  13 C13            5.2673    -3.4167     0.2522 C.3     
  14 C14            6.4979    -2.6530     0.7512 C.3     
  15 C15            7.5066    -2.5163    -0.3916 C.3     
  16 C16            6.8768    -1.7215    -1.5378 C.3     
  17 C17            5.6491    -2.4797    -2.0650 C.3     
  18 N18            8.7022    -1.8134     0.0923 N.3     
  19 C19            9.7422    -1.7677    -0.9449 C.3     
  20 C20           10.9367    -0.9606    -0.4307 C.3     
  21 N21           11.4502    -1.5802     0.7990 N.3     
  22 C22           10.4102    -1.6259     1.8362 C.3     
  23 C23            9.2158    -2.4329     1.3220 C.3     
  24 H24           11.8169    -2.5018     0.6137 H       
  25 O25            0.7581    -2.5311    -2.3936 O.2     
  26 N26           -0.5549    -3.4611    -0.7746 N.am    
  27 C27            0.4461    -2.7562     1.1532 C.ar    
  28 C28           -0.6036    -3.4976     0.6161 C.ar    
  29 C29            0.6093    -2.6424     2.5105 C.ar    
  30 C30           -0.2887    -3.2781     3.3753 C.ar    
  31 C31           -1.3464    -4.0251     2.8426 C.ar    
  32 C32           -1.4988    -4.1329     1.4768 C.ar    
  33 F33           -2.2187    -4.6426     3.6689 F       
  34 C34           -1.0177    -5.8468    -2.0664 C.ar    
  35 C35            0.1618    -6.0072    -2.7793 C.ar    
  36 C36           -1.6977    -6.9539    -1.5952 C.ar    
  37 C37           -1.2049    -8.2226    -1.8321 C.ar    
  38 C38           -0.0254    -8.3883    -2.5447 C.ar    
  39 C39            0.6582    -7.2796    -3.0187 C.ar    
  40 O40            0.4586    -9.6366    -2.7778 O.3     
  41 O41            0.8298    -4.9183    -3.2428 O.3     
  42 C42           -0.2979   -10.7329    -2.2602 C.3     
  43 C43            2.0371    -5.1582    -3.9686 C.3     
  44 C44            2.6427    -3.8231    -4.4065 C.3     
  45 C45           -0.1270    -3.1659     4.7937 C.1     
  46 N46            0.0013    -3.0769     5.9189 N.1     
  47 O47           -1.1673    -0.6943     0.0143 O.3     
  48 C48           -3.5778    -0.8661     0.0338 C.3     
  49 C49           -2.3714     0.0749     0.0333 C.3     
  50 S50           -1.6454    -4.2300    -1.7555 S.o2    
  51 O51           -2.8276    -4.3998    -0.9855 O.2     
  52 O52           -1.6199    -3.5436    -2.9994 O.2     
  53 H53            3.3445    -0.4978    -0.0220 H       
  54 H54            3.2394     1.9863     0.0059 H       
  55 H55            1.0471     3.1006     0.0359 H       
  56 H56            2.9002    -3.2815     0.7083 H       
  57 H57            4.5052    -3.4309     1.0314 H       
  58 H58            5.5499    -4.4378    -0.0039 H       
  59 H59            6.1977    -1.6621     1.0919 H       
  60 H60            6.9550    -3.1989     1.5765 H       
  61 H61            7.7876    -3.5072    -0.7483 H       
  62 H62            6.5730    -0.7394    -1.1756 H       
  63 H63            7.6035    -1.6045    -2.3417 H       
  64 H64            5.9656    -3.4231    -2.5099 H       
  65 H65            5.1388    -1.8734    -2.8134 H       
  66 H66           10.0637    -2.7817    -1.1825 H       
  67 H67            9.3416    -1.2935    -1.8409 H       
  68 H68           11.7211    -0.9498    -1.1874 H       
  69 H69           10.6212     0.0610    -0.2188 H       
  70 H70           10.8108    -2.1001     2.7322 H       
  71 H71           10.0888    -0.6118     2.0739 H       
  72 H72            8.4313    -2.4437     2.0787 H       
  73 H73            9.5312    -3.4545     1.1102 H       
  74 H74            1.4289    -2.0639     2.9107 H       
  75 H75           -2.3163    -4.7105     1.0712 H       
  76 H76           -2.6156    -6.8269    -1.0405 H       
  77 H77           -1.7377    -9.0861    -1.4622 H       
  78 H78            1.5760    -7.4065    -3.5737 H       
  79 H79           -0.3706   -10.6446    -1.1763 H       
  80 H80           -1.2980   -10.7209    -2.6936 H       
  81 H81            0.1977   -11.6693    -2.5161 H       
  82 H82            2.7455    -5.6868    -3.3308 H       
  83 H83            1.8181    -5.7637    -4.8481 H       
  84 H84            3.5637    -4.0061    -4.9601 H       
  85 H85            1.9343    -3.2946    -5.0443 H       
  86 H86            2.8617    -3.2176    -3.5270 H       
  87 H87           -3.5562    -1.4850    -0.8632 H       
  88 H88           -3.5404    -1.5043     0.9166 H       
  89 H89           -4.4963    -0.2793     0.0484 H       
  90 H90           -2.3930     0.6939     0.9303 H       
  91 H91           -2.4088     0.7132    -0.8495 H       
@<TRIPOS>BOND
   1    1    2 ar
   2    1    6 ar
   3    2    3 ar
   4    2   47 1
   5    3    4 ar
   6    3    7 1
   7    4    5 ar
   8    4   53 1
   9    5    6 ar
  10    5   54 1
  11    6   55 1
  12    7    8 1
  13    7    9 1
  14    7   27 1
  15    8   25 2
  16    8   26 am
  17    9   10 am
  18    9   56 1
  19   10   11 am
  20   10   12 2
  21   11   13 1
  22   11   17 1
  23   13   14 1
  24   13   57 1
  25   13   58 1
  26   14   15 1
  27   14   59 1
  28   14   60 1
  29   15   16 1
  30   15   18 1
  31   15   61 1
  32   16   17 1
  33   16   62 1
  34   16   63 1
  35   17   64 1
  36   17   65 1
  37   18   19 1
  38   18   23 1
  39   19   20 1
  40   19   66 1
  41   19   67 1
  42   20   21 1
  43   20   68 1
  44   20   69 1
  45   21   22 1
  46   21   24 1
  47   22   23 1
  48   22   70 1
  49   22   71 1
  50   23   72 1
  51   23   73 1
  52   26   50 am
  53   26   28 1
  54   27   28 ar
  55   27   29 ar
  56   28   32 ar
  57   29   30 ar
  58   29   74 1
  59   30   31 ar
  60   30   45 1
  61   31   32 ar
  62   31   33 1
  63   32   75 1
  64   34   35 ar
  65   34   36 ar
  66   34   50 1
  67   35   41 1
  68   35   39 ar
  69   36   37 ar
  70   36   76 1
  71   37   38 ar
  72   37   77 1
  73   38   39 ar
  74   38   40 1
  75   39   78 1
  76   40   42 1
  77   41   43 1
  78   42   79 1
  79   42   80 1
  80   42   81 1
  81   43   44 1
  82   43   82 1
  83   43   83 1
  84   44   84 1
  85   44   85 1
  86   44   86 1
  87   45   46 3
  88   47   49 1
  89   48   49 1
  90   48   87 1
  91   48   88 1
  92   48   89 1
  93   49   90 1
  94   49   91 1
  95   50   51 2
  96   50   52 2

#	End of record

