#	Name: ASD03540028
#	Creating user name:	WinNT
#	Creation time:	15. 06. 2019 20:42

#	Modifying user name:	WinNT
#	Modification time:	15. 06. 2019 20:42

#	Program:	/corina/corina34_cracker 3.40 0067  02.08.2006

@<TRIPOS>MOLECULE
ASD03540028
  49   53    0    0    0
SMALL
NO_CHARGES


@<TRIPOS>ATOM
   1 C1            -0.0164     1.3579     0.0095 C.2     
   2 N2             0.0021    -0.0041     0.0020 N.am    
   3 C3             1.2284    -0.6238    -0.0131 C.2     
   4 C4             2.3974     0.1025    -0.0208 C.2     
   5 C5             2.3228     1.5016    -0.0130 C.2     
   6 N6             1.1082     2.0844     0.0027 N.am    
   7 S7             0.9036    -2.3626    -0.0187 S.3     
   8 C8            -1.0724    -0.8452     0.0083 C.2     
   9 C9            -0.8584    -2.1683    -0.0005 C.2     
  10 C10           -1.8701    -3.2326     0.0040 C.2     
  11 O11           -3.0529    -2.9475     0.0165 O.2     
  12 N12           -1.4886    -4.5252    -0.0058 N.am    
  13 C13           -2.4979    -5.5869    -0.0013 C.3     
  14 N14            0.0459   -10.5841     0.0766 N.2     
  15 S15            0.1917   -10.8483     1.6024 S.3     
  16 N16           -0.4617    -9.5557     2.1695 N.2     
  17 C17           -0.8597    -8.7880     1.1679 C.ar    
  18 C18           -0.5490    -9.4174    -0.1131 C.ar    
  19 C19           -1.5033    -7.5249     1.1629 C.ar    
  20 C20           -1.8144    -6.9299    -0.0142 C.ar    
  21 C21           -1.5175    -7.5309    -1.2375 C.ar    
  22 C22           -0.9047    -8.7376    -1.3052 C.ar    
  23 O23            3.3377     2.1787    -0.0193 O.2     
  24 O24           -1.0879     1.9319     0.0177 O.2     
  25 C25            3.7334    -0.5944    -0.0369 C.3     
  26 C26            1.0159     3.5465     0.0110 C.3     
  27 C27            0.9975     4.0406     1.4345 C.ar    
  28 C28            2.1839     4.3427     2.0767 C.ar    
  29 C29            2.1670     4.7959     3.3825 C.ar    
  30 C30            0.9639     4.9474     4.0461 C.ar    
  31 C31           -0.2225     4.6462     3.4036 C.ar    
  32 C32           -0.2059     4.1971     2.0964 C.ar    
  33 H33           -2.0780    -0.4515     0.0204 H       
  34 H34           -0.5456    -4.7524    -0.0158 H       
  35 H35           -3.1122    -5.5005     0.8949 H       
  36 H36           -3.1291    -5.4920    -0.8850 H       
  37 H37           -1.7448    -7.0372     2.0957 H       
  38 H38           -1.7834    -7.0228    -2.1527 H       
  39 H39           -0.6867    -9.1804    -2.2658 H       
  40 H40            4.0458    -0.7575    -1.0683 H       
  41 H41            4.4721     0.0243     0.4729 H       
  42 H42            3.6489    -1.5539     0.4733 H       
  43 H43            1.8764     3.9678    -0.5088 H       
  44 H44            0.1000     3.8556    -0.4928 H       
  45 H45            3.1239     4.2243     1.5582 H       
  46 H46            3.0939     5.0312     3.8844 H       
  47 H47            0.9508     5.3008     5.0665 H       
  48 H48           -1.1625     4.7642     3.9222 H       
  49 H49           -1.1330     3.9653     1.5932 H       
@<TRIPOS>BOND
   1    1    2 am
   2    1    6 am
   3    1   24 2
   4    2    3 1
   5    2    8 1
   6    3    4 2
   7    3    7 1
   8    4    5 1
   9    4   25 1
  10    5    6 am
  11    5   23 2
  12    6   26 1
  13    7    9 1
  14    8    9 2
  15    8   33 1
  16    9   10 1
  17   10   11 2
  18   10   12 am
  19   12   13 1
  20   12   34 1
  21   13   20 1
  22   13   35 1
  23   13   36 1
  24   14   15 1
  25   14   18 2
  26   15   16 1
  27   16   17 2
  28   17   18 ar
  29   17   19 ar
  30   18   22 ar
  31   19   20 ar
  32   19   37 1
  33   20   21 ar
  34   21   22 ar
  35   21   38 1
  36   22   39 1
  37   25   40 1
  38   25   41 1
  39   25   42 1
  40   26   27 1
  41   26   43 1
  42   26   44 1
  43   27   28 ar
  44   27   32 ar
  45   28   29 ar
  46   28   45 1
  47   29   30 ar
  48   29   46 1
  49   30   31 ar
  50   30   47 1
  51   31   32 ar
  52   31   48 1
  53   32   49 1

#	End of record

