#	Name: ASD02448117
#	Creating user name:	WinNT
#	Creation time:	15. 06. 2019 20:21

#	Modifying user name:	WinNT
#	Modification time:	15. 06. 2019 20:21

#	Program:	/corina/corina34_cracker 3.40 0067  02.08.2006

@<TRIPOS>MOLECULE
ASD02448117
  88   93    0    0    0
SMALL
NO_CHARGES


@<TRIPOS>ATOM
   1 C1             3.4396    -7.4286    -1.3060 C.ar    
   2 C2             2.8930    -6.3246    -0.6830 C.ar    
   3 C3             2.3074    -5.3190    -1.4403 C.ar    
   4 C4             2.2709    -5.4235    -2.8241 C.ar    
   5 C5             2.8172    -6.5272    -3.4479 C.ar    
   6 C6             3.4036    -7.5333    -2.6906 C.ar    
   7 N7             3.9575    -8.6511    -3.3219 N.am    
   8 C8             5.0180    -9.5363    -2.8232 C.3     
   9 C9             5.3259   -10.6217    -3.8035 C.2     
  10 N10            4.5958   -10.5872    -4.9272 N.am    
  11 S11            3.5599    -9.2893    -4.8113 S.o2    
  12 O12            6.1705   -11.4676    -3.5985 O.2     
  13 O13            2.2422    -9.8121    -4.7133 O.2     
  14 O14            3.9659    -8.3403    -5.7878 O.2     
  15 N15            1.7519    -4.1967    -0.8065 N.pl3   
  16 C16            0.7935    -4.2081     0.1710 C.2     
  17 C17            2.0695    -2.8975    -1.0451 C.2     
  18 N18            1.3498    -2.1377    -0.2673 N.2     
  19 C19            0.5516    -2.9112     0.4961 C.2     
  20 C20           -0.4185    -2.4314     1.5108 C.ar    
  21 C21           -0.5668    -1.0645     1.7459 C.ar    
  22 C22           -1.1886    -3.3443     2.2282 C.ar    
  23 C23           -2.0898    -2.8930     3.1712 C.ar    
  24 C24           -2.2297    -1.5359     3.4053 C.ar    
  25 C25           -1.4713    -0.6236     2.6916 C.ar    
  26 C26            3.0878    -2.4135    -2.0450 C.3     
  27 C27            4.4086    -2.1971    -1.3523 C.ar    
  28 C28            5.2783    -3.2587    -1.1797 C.ar    
  29 C29            4.7492    -0.9363    -0.8965 C.ar    
  30 C30            5.9577    -0.7323    -0.2618 C.ar    
  31 C31            6.8353    -1.7993    -0.0806 C.ar    
  32 C32            6.4894    -3.0661    -0.5464 C.ar    
  33 C33            8.1360    -1.5860     0.6011 C.ar    
  34 C34            8.4837    -0.3173     1.0621 C.ar    
  35 C35            9.0098    -2.6537     0.7869 C.ar    
  36 C36           10.2240    -2.4478     1.4246 C.ar    
  37 C37           10.5647    -1.1789     1.8758 C.ar    
  38 C38            9.6942    -0.1205     1.6956 C.ar    
  39 C39           11.8845    -0.9569     2.5686 C.3     
  40 C40           12.6883     0.5831     0.7729 C.3     
  41 C41           12.9758    -0.7191     1.5230 C.3     
  42 Cl42          -3.3655    -0.9755     4.5926 Cl      
  43 Cl43           0.3841     0.0801     0.8518 Cl      
  44 C44           14.3349    -0.6178     2.2182 C.3     
  45 N45           11.1056    -3.5183     1.6141 N.am    
  46 C46           10.6322    -4.7789     1.6730 C.2     
  47 O47           11.4692    -5.8009     1.9335 O.3     
  48 O48            9.4500    -4.9930     1.4909 O.2     
  49 C49           10.8899    -7.1314     1.9818 C.3     
  50 C50           11.9351    -8.1589     1.5426 C.3     
  51 C51           10.4402    -7.4404     3.4112 C.3     
  52 H52            3.8990    -8.2087    -0.7171 H       
  53 H53            2.9206    -6.2432     0.3935 H       
  54 H54            1.8147    -4.6414    -3.4128 H       
  55 H55            2.7884    -6.6086    -4.5244 H       
  56 H56            5.9191    -8.9491    -2.6460 H       
  57 H57            4.6961    -9.9848    -1.8833 H       
  58 H58            4.6578   -11.2070    -5.6708 H       
  59 H59            0.3212    -5.0792     0.6005 H       
  60 H60           -1.0809    -4.4034     2.0464 H       
  61 H61           -2.6874    -3.6002     3.7274 H       
  62 H62           -1.5841     0.4342     2.8780 H       
  63 H63            3.2078    -3.1589    -2.8312 H       
  64 H64            2.7492    -1.4746    -2.4831 H       
  65 H65            5.0090    -4.2403    -1.5409 H       
  66 H66            4.0683    -0.1099    -1.0379 H       
  67 H67            6.2228     0.2525     0.0934 H       
  68 H68            7.1659    -3.8965    -0.4085 H       
  69 H69            7.8058     0.5119     0.9234 H       
  70 H70            8.7428    -3.6395     0.4357 H       
  71 H71            9.9636     0.8642     2.0481 H       
  72 H72           11.8106    -0.0868     3.2210 H       
  73 H73           12.1355    -1.8359     3.1623 H       
  74 H74           13.4658     0.7526     0.0280 H       
  75 H75           11.7201     0.5110     0.2776 H       
  76 H76           12.6744     1.4135     1.4789 H       
  77 H77           12.9898    -1.5495     0.8171 H       
  78 H78           14.3210     0.2126     2.9242 H       
  79 H79           14.5397    -1.5455     2.7526 H       
  80 H80           15.1124    -0.4484     1.4733 H       
  81 H81           12.0572    -3.3530     1.7030 H       
  82 H82           10.0308    -7.1782     1.3125 H       
  83 H83           12.7941    -8.1122     2.2119 H       
  84 H84           11.5002    -9.1578     1.5788 H       
  85 H85           12.2554    -7.9388     0.5243 H       
  86 H86           10.0054    -8.4392     3.4474 H       
  87 H87           11.2993    -7.3936     4.0804 H       
  88 H88            9.6957    -6.7084     3.7241 H       
@<TRIPOS>BOND
   1    1    2 ar
   2    1    6 ar
   3    1   52 1
   4    2    3 ar
   5    2   53 1
   6    3    4 ar
   7    3   15 1
   8    4    5 ar
   9    4   54 1
  10    5    6 ar
  11    5   55 1
  12    6    7 1
  13    7    8 1
  14    7   11 am
  15    8    9 1
  16    8   56 1
  17    8   57 1
  18    9   10 am
  19    9   12 2
  20   10   11 am
  21   10   58 1
  22   11   13 2
  23   11   14 2
  24   15   16 1
  25   15   17 1
  26   16   19 2
  27   16   59 1
  28   17   18 2
  29   17   26 1
  30   18   19 1
  31   19   20 1
  32   20   21 ar
  33   20   22 ar
  34   21   43 1
  35   21   25 ar
  36   22   23 ar
  37   22   60 1
  38   23   24 ar
  39   23   61 1
  40   24   25 ar
  41   24   42 1
  42   25   62 1
  43   26   27 1
  44   26   63 1
  45   26   64 1
  46   27   28 ar
  47   27   29 ar
  48   28   32 ar
  49   28   65 1
  50   29   30 ar
  51   29   66 1
  52   30   31 ar
  53   30   67 1
  54   31   32 ar
  55   31   33 1
  56   32   68 1
  57   33   34 ar
  58   33   35 ar
  59   34   38 ar
  60   34   69 1
  61   35   36 ar
  62   35   70 1
  63   36   37 ar
  64   36   45 1
  65   37   39 1
  66   37   38 ar
  67   38   71 1
  68   39   41 1
  69   39   72 1
  70   39   73 1
  71   40   41 1
  72   40   74 1
  73   40   75 1
  74   40   76 1
  75   41   44 1
  76   41   77 1
  77   44   78 1
  78   44   79 1
  79   44   80 1
  80   45   46 am
  81   45   81 1
  82   46   47 1
  83   46   48 2
  84   47   49 1
  85   49   50 1
  86   49   51 1
  87   49   82 1
  88   50   83 1
  89   50   84 1
  90   50   85 1
  91   51   86 1
  92   51   87 1
  93   51   88 1

#	End of record

