#	Name: ASD01028274
#	Creating user name:	WinNT
#	Creation time:	15. 06. 2019 18:56

#	Modifying user name:	WinNT
#	Modification time:	15. 06. 2019 18:56

#	Program:	/corina/corina34_cracker 3.40 0067  02.08.2006

@<TRIPOS>MOLECULE
ASD01028274
  42   46    0    0    0
SMALL
NO_CHARGES


@<TRIPOS>ATOM
   1 C1            -0.0157     1.3066     0.0092 C.ar    
   2 N2             0.0021    -0.0041     0.0020 N.ar    
   3 C3             1.1590     2.0560     0.0020 C.ar    
   4 C4             2.3700     1.4248    -0.0129 C.ar    
   5 C5             2.3853     0.0171    -0.0205 C.ar    
   6 C6             1.1534    -0.6834    -0.0126 C.ar    
   7 C7             3.5916    -0.7008    -0.0353 C.ar    
   8 C8             3.5644    -2.0622    -0.0419 C.ar    
   9 C9             2.3546    -2.7530    -0.0346 C.ar    
  10 C10            1.1666    -2.0889    -0.0202 C.ar    
  11 C11            5.2155    -3.1877    -1.4784 C.2     
  12 N12            6.1725    -2.6025    -2.2313 N.pl3   
  13 C13            6.1433    -3.2436    -3.4471 C.2     
  14 N14            5.1941    -4.1622    -3.3728 N.2     
  15 N15            4.6562    -4.1238    -2.2038 N.2     
  16 N16            7.0849    -1.5697    -2.0061 N.2     
  17 C17            7.9217    -1.2017    -2.9509 C.2     
  18 C18            7.9160    -1.8398    -4.2094 C.2     
  19 C19            7.0401    -2.8489    -4.4580 C.2     
  20 C20            8.8831    -0.1020    -2.6910 C.ar    
  21 C21            8.8977     0.5359    -1.4522 C.ar    
  22 C22            9.7945     1.5580    -1.2158 C.ar    
  23 C23           10.6777     1.9494    -2.2057 C.ar    
  24 C24           10.6676     1.3197    -3.4373 C.ar    
  25 C25            9.7787     0.2929    -3.6829 C.ar    
  26 C26            4.8600    -2.8318    -0.0578 C.3     
  27 O27            4.7131    -4.0278     0.7103 O.3     
  28 H28           -0.9662     1.8194     0.0165 H       
  29 H29            1.1119     3.1349     0.0079 H       
  30 H30            3.2904     1.9898    -0.0190 H       
  31 H31            4.5357    -0.1763    -0.0418 H       
  32 H32            2.3595    -3.8330    -0.0408 H       
  33 H33            0.2377    -2.6397    -0.0140 H       
  34 H34            8.6089    -1.5262    -4.9762 H       
  35 H35            7.0312    -3.3409    -5.4194 H       
  36 H36            8.2083     0.2314    -0.6787 H       
  37 H37            9.8064     2.0534    -0.2561 H       
  38 H38           11.3776     2.7499    -2.0165 H       
  39 H39           11.3592     1.6296    -4.2068 H       
  40 H40            9.7717    -0.1981    -4.6448 H       
  41 H41            5.6521    -2.2187     0.3722 H       
  42 H42            4.0239    -4.6225     0.3842 H       
@<TRIPOS>BOND
   1    1    2 ar
   2    1    3 ar
   3    1   28 1
   4    2    6 ar
   5    3    4 ar
   6    3   29 1
   7    4    5 ar
   8    4   30 1
   9    5    6 ar
  10    5    7 ar
  11    6   10 ar
  12    7    8 ar
  13    7   31 1
  14    8    9 ar
  15    8   26 1
  16    9   10 ar
  17    9   32 1
  18   10   33 1
  19   11   12 1
  20   11   26 1
  21   11   15 2
  22   12   13 1
  23   12   16 1
  24   13   14 2
  25   13   19 1
  26   14   15 1
  27   16   17 2
  28   17   18 1
  29   17   20 1
  30   18   19 2
  31   18   34 1
  32   19   35 1
  33   20   21 ar
  34   20   25 ar
  35   21   22 ar
  36   21   36 1
  37   22   23 ar
  38   22   37 1
  39   23   24 ar
  40   23   38 1
  41   24   25 ar
  42   24   39 1
  43   25   40 1
  44   26   27 1
  45   26   41 1
  46   27   42 1

#	End of record

