#	Name: ASD02500209
#	Creating user name:	WinNT
#	Creation time:	15. 06. 2019 20:22

#	Modifying user name:	WinNT
#	Modification time:	15. 06. 2019 20:22

#	Program:	/corina/corina34_cracker 3.40 0067  02.08.2006

@<TRIPOS>MOLECULE
ASD02500209
  70   74    0    0    0
SMALL
NO_CHARGES


@<TRIPOS>ATOM
   1 N1             0.3039     0.3530    -3.6715 N.am    
   2 C2             1.5257     1.1692    -3.7034 C.3     
   3 C3             2.1045     1.2405    -2.2849 C.3     
   4 N4             2.1767    -0.1217    -1.7381 N.am    
   5 C5             0.9550    -0.9379    -1.7063 C.3     
   6 C6             0.3762    -1.0092    -3.1248 C.3     
   7 C7            -0.8631     0.8470    -4.1304 C.2     
   8 O8            -0.9116     1.9766    -4.5755 O.2     
   9 O9            -1.9752     0.0888    -4.0955 O.3     
  10 C10            3.3427    -0.6138    -1.2746 C.2     
  11 C11            4.5797     0.1803    -1.3983 C.ar    
  12 C12            4.5605     1.5529    -1.1329 C.ar    
  13 C13            5.7158     2.2909    -1.2492 C.ar    
  14 C14            6.9033     1.6723    -1.6312 C.ar    
  15 C15            6.9256     0.3060    -1.8966 C.ar    
  16 C16            5.7747    -0.4389    -1.7756 C.ar    
  17 O17            3.3750    -1.7124    -0.7544 O.2     
  18 S18            9.1981     2.0218    -2.8923 S.o2    
  19 O19            8.4816     1.7769    -4.0947 O.2     
  20 O20           10.2342     2.9888    -2.7880 O.2     
  21 N21            8.0692     2.4209    -1.7483 N.am    
  22 N22           10.7894     1.4403    -0.4117 N.ar    
  23 C23           11.4607     1.3515     0.7108 C.ar    
  24 C24           12.0367     0.1533     1.1278 C.ar    
  25 C25           11.9082    -0.9685     0.3596 C.ar    
  26 C26           11.1863    -0.8696    -0.8449 C.ar    
  27 C27           11.0127    -1.9796    -1.6866 C.ar    
  28 C28           10.3080    -1.8430    -2.8438 C.ar    
  29 C29            9.7556    -0.6157    -3.2038 C.ar    
  30 C30            9.9053     0.4811    -2.4119 C.ar    
  31 C31           10.6265     0.3802    -1.2096 C.ar    
  32 C32            5.6960     3.7704    -0.9633 C.3     
  33 C33           -3.1962     0.6857    -4.6064 C.3     
  34 C34           -4.0961    -0.4087    -5.1838 C.3     
  35 C35           -5.3828     0.2203    -5.7221 C.3     
  36 C36           -6.1152     0.9357    -4.5851 C.3     
  37 C37           -5.2153     2.0301    -4.0078 C.3     
  38 C38           -3.9287     1.4011    -3.4694 C.3     
  39 H39            2.2539     0.7117    -4.3730 H       
  40 H40            1.2855     2.1738    -4.0514 H       
  41 H41            3.1038     1.6746    -2.3189 H       
  42 H42            1.4581     1.8532    -1.6564 H       
  43 H43            1.1951    -1.9425    -1.3582 H       
  44 H44            0.2267    -0.4803    -1.0366 H       
  45 H45           -0.6231    -1.4432    -3.0907 H       
  46 H46            1.0226    -1.6218    -3.7532 H       
  47 H47            3.6396     2.0335    -0.8372 H       
  48 H48            7.8482    -0.1709    -2.1931 H       
  49 H49            5.7937    -1.4998    -1.9769 H       
  50 H50            8.2212     3.1770    -1.1599 H       
  51 H51           11.5705     2.2306     1.3285 H       
  52 H52           12.5846     0.1118     2.0576 H       
  53 H53           12.3485    -1.9054     0.6674 H       
  54 H54           11.4359    -2.9363    -1.4182 H       
  55 H55           10.1749    -2.6975    -3.4907 H       
  56 H56            9.2015    -0.5328    -4.1271 H       
  57 H57            5.9104     3.9395     0.0920 H       
  58 H58            6.4510     4.2682    -1.5717 H       
  59 H59            4.7122     4.1737    -1.2033 H       
  60 H60           -2.9500     1.4038    -5.3886 H       
  61 H61           -3.5743    -0.9184    -5.9938 H       
  62 H62           -4.3424    -1.1268    -4.4016 H       
  63 H63           -5.1365     0.9384    -6.5043 H       
  64 H64           -6.0239    -0.5594    -6.1334 H       
  65 H65           -7.0319     1.3837    -4.9687 H       
  66 H66           -6.3614     0.2175    -3.8030 H       
  67 H67           -4.9691     2.7482    -4.7899 H       
  68 H68           -5.7371     2.5397    -3.1978 H       
  69 H69           -4.1749     0.6830    -2.6873 H       
  70 H70           -3.2876     2.1808    -3.0581 H       
@<TRIPOS>BOND
   1    1    2 1
   2    1    6 1
   3    1    7 am
   4    2    3 1
   5    2   39 1
   6    2   40 1
   7    3    4 1
   8    3   41 1
   9    3   42 1
  10    4    5 1
  11    4   10 am
  12    5    6 1
  13    5   43 1
  14    5   44 1
  15    6   45 1
  16    6   46 1
  17    7    8 2
  18    7    9 1
  19    9   33 1
  20   10   11 1
  21   10   17 2
  22   11   12 ar
  23   11   16 ar
  24   12   13 ar
  25   12   47 1
  26   13   14 ar
  27   13   32 1
  28   14   15 ar
  29   14   21 1
  30   15   16 ar
  31   15   48 1
  32   16   49 1
  33   18   19 2
  34   18   20 2
  35   18   21 am
  36   18   30 1
  37   21   50 1
  38   22   23 ar
  39   22   31 ar
  40   23   24 ar
  41   23   51 1
  42   24   25 ar
  43   24   52 1
  44   25   26 ar
  45   25   53 1
  46   26   27 ar
  47   26   31 ar
  48   27   28 ar
  49   27   54 1
  50   28   29 ar
  51   28   55 1
  52   29   30 ar
  53   29   56 1
  54   30   31 ar
  55   32   57 1
  56   32   58 1
  57   32   59 1
  58   33   34 1
  59   33   38 1
  60   33   60 1
  61   34   35 1
  62   34   61 1
  63   34   62 1
  64   35   36 1
  65   35   63 1
  66   35   64 1
  67   36   37 1
  68   36   65 1
  69   36   66 1
  70   37   38 1
  71   37   67 1
  72   37   68 1
  73   38   69 1
  74   38   70 1

#	End of record

