#	Name: ASD08150286
#	Creating user name:	WinNT
#	Creation time:	15. 06. 2019 21:15

#	Modifying user name:	WinNT
#	Modification time:	15. 06. 2019 21:15

#	Program:	/corina/corina34_cracker 3.40 0067  02.08.2006

@<TRIPOS>MOLECULE
ASD08150286
  53   57    0    0    0
SMALL
NO_CHARGES


@<TRIPOS>ATOM
   1 N1             0.0465     1.2450     0.2319 N.2     
   2 C2            -0.3310     0.0159     0.0517 C.2     
   3 N3             0.4858    -1.0538     0.2510 N.am    
   4 C4             1.7646    -0.8774     0.6577 C.2     
   5 C5             2.2230     0.5031     0.8702 C.ar    
   6 C6             3.5203     0.7924     1.2889 C.ar    
   7 C7             3.8973     2.1045     1.4731 C.ar    
   8 C8             2.9965     3.1369     1.2457 C.ar    
   9 C9             1.7102     2.8725     0.8323 C.ar    
  10 C10            1.3041     1.5506     0.6381 C.ar    
  11 O11            2.5063    -1.8252     0.8407 O.2     
  12 C12           -1.7457    -0.2389    -0.4006 C.3     
  13 C13           -2.5867     1.0197    -0.1783 C.3     
  14 C14           -4.0483     0.7234    -0.5201 C.3     
  15 N15           -1.7486    -0.5829    -1.8247 N.pl3   
  16 C16           -4.4093    -2.9659    -1.9641 C.ar    
  17 N17           -4.4721    -3.3057    -3.2334 N.ar    
  18 C18           -3.6392    -2.7687    -4.1234 C.ar    
  19 C19           -2.6910    -1.8300    -3.6762 C.ar    
  20 C20           -2.6621    -1.4996    -2.3129 C.ar    
  21 N21           -3.5356    -2.0897    -1.5020 N.ar    
  22 N22           -3.4599    -2.9122    -5.4718 N.pl3   
  23 C23           -1.9315    -1.4230    -4.8570 C.2     
  24 C24           -2.4378    -2.1039    -5.8980 C.2     
  25 C25           -0.0011    -2.3490     0.0339 C.ar    
  26 C26            0.4474    -3.0878    -1.0530 C.ar    
  27 C27           -0.0343    -4.3649    -1.2641 C.ar    
  28 C28           -0.9624    -4.9079    -0.3945 C.ar    
  29 C29           -1.4113    -4.1745     0.6884 C.ar    
  30 C30           -0.9291    -2.8991     0.9082 C.ar    
  31 C31            4.5035    -0.3220     1.5387 C.3     
  32 H32            4.9019     2.3324     1.7974 H       
  33 H33            3.3088     4.1599     1.3954 H       
  34 H34            1.0184     3.6836     0.6594 H       
  35 H35           -2.1676    -1.0640     0.1733 H       
  36 H36           -2.5126     1.3265     0.8650 H       
  37 H37           -2.2188     1.8206    -0.8195 H       
  38 H38           -4.1224     0.4165    -1.5634 H       
  39 H39           -4.4163    -0.0775     0.1212 H       
  40 H40           -4.6475     1.6200    -0.3617 H       
  41 H41           -1.1099    -0.1677    -2.4252 H       
  42 H42           -5.1038    -3.4187    -1.2719 H       
  43 H43           -3.9795    -3.4996    -6.0426 H       
  44 H44           -1.1197    -0.7114    -4.8866 H       
  45 H45           -2.0915    -2.0266    -6.9181 H       
  46 H46            1.1719    -2.6641    -1.7327 H       
  47 H47            0.3138    -4.9399    -2.1094 H       
  48 H48           -1.3376    -5.9067    -0.5618 H       
  49 H49           -2.1367    -4.6011     1.3654 H       
  50 H50           -1.2768    -2.3285     1.7567 H       
  51 H51            4.9631    -0.6192     0.5960 H       
  52 H52            5.2757     0.0222     2.2267 H       
  53 H53            3.9830    -1.1750     1.9740 H       
@<TRIPOS>BOND
   1    1    2 2
   2    1   10 1
   3    2    3 1
   4    2   12 1
   5    3    4 am
   6    3   25 1
   7    4    5 1
   8    4   11 2
   9    5    6 ar
  10    5   10 ar
  11    6    7 ar
  12    6   31 1
  13    7    8 ar
  14    7   32 1
  15    8    9 ar
  16    8   33 1
  17    9   10 ar
  18    9   34 1
  19   12   13 1
  20   12   15 1
  21   12   35 1
  22   13   14 1
  23   13   36 1
  24   13   37 1
  25   14   38 1
  26   14   39 1
  27   14   40 1
  28   15   20 1
  29   15   41 1
  30   16   17 ar
  31   16   21 ar
  32   16   42 1
  33   17   18 ar
  34   18   19 ar
  35   18   22 1
  36   19   20 ar
  37   19   23 1
  38   20   21 ar
  39   22   24 1
  40   22   43 1
  41   23   24 2
  42   23   44 1
  43   24   45 1
  44   25   26 ar
  45   25   30 ar
  46   26   27 ar
  47   26   46 1
  48   27   28 ar
  49   27   47 1
  50   28   29 ar
  51   28   48 1
  52   29   30 ar
  53   29   49 1
  54   30   50 1
  55   31   51 1
  56   31   52 1
  57   31   53 1

#	End of record

