#	Name: ASD03080126
#	Creating user name:	WinNT
#	Creation time:	15. 06. 2019 20:26

#	Modifying user name:	WinNT
#	Modification time:	15. 06. 2019 20:26

#	Program:	/corina/corina34_cracker 3.40 0067  02.08.2006

@<TRIPOS>MOLECULE
ASD03080126
  26   28    0    0    0
SMALL
NO_CHARGES


@<TRIPOS>ATOM
   1 Cl1            0.0021    -0.0041     0.0020 Cl      
   2 C2            -0.0215     1.7317     0.0116 C.ar    
   3 C3             1.1653     2.4400     0.0040 C.ar    
   4 C4             1.1468     3.8227     0.0121 C.ar    
   5 C5            -0.0580     4.5009     0.0273 C.ar    
   6 C6            -1.2479     3.7990     0.0349 C.ar    
   7 C7            -1.2338     2.4112     0.0210 C.ar    
   8 N8            -2.4399     1.6961     0.0287 N.pl3   
   9 N9            -3.6157     2.2197     0.0478 N.2     
  10 N10           -4.4947     1.2758     0.0493 N.2     
  11 C11           -3.8291     0.1121     0.0302 C.2     
  12 N12           -2.5451     0.4118     0.0121 N.2     
  13 C13           -4.4222    -1.2487     0.0244 C.ar    
  14 C14           -5.8088    -1.4187     0.0389 C.ar    
  15 C15           -6.3124    -2.7085     0.0327 C.ar    
  16 C16           -5.4350    -3.7769     0.0125 C.ar    
  17 N17           -4.1300    -3.5849    -0.0008 N.ar    
  18 C18           -3.6051    -2.3768    -0.0015 C.ar    
  19 H19            2.1080     1.9131    -0.0078 H       
  20 H20            2.0754     4.3740     0.0070 H       
  21 H21           -0.0689     5.5808     0.0336 H       
  22 H22           -2.1884     4.3298     0.0475 H       
  23 H23           -6.4710    -0.5657     0.0548 H       
  24 H24           -7.3789    -2.8781     0.0438 H       
  25 H25           -5.8242    -4.7844     0.0080 H       
  26 H26           -2.5316    -2.2598    -0.0130 H       
@<TRIPOS>BOND
   1    1    2 1
   2    2    3 ar
   3    2    7 ar
   4    3    4 ar
   5    3   19 1
   6    4    5 ar
   7    4   20 1
   8    5    6 ar
   9    5   21 1
  10    6    7 ar
  11    6   22 1
  12    7    8 1
  13    8    9 1
  14    8   12 1
  15    9   10 2
  16   10   11 1
  17   11   12 2
  18   11   13 1
  19   13   14 ar
  20   13   18 ar
  21   14   15 ar
  22   14   23 1
  23   15   16 ar
  24   15   24 1
  25   16   17 ar
  26   16   25 1
  27   17   18 ar
  28   18   26 1

#	End of record

