#	Name: ASD08170705
#	Creating user name:	WinNT
#	Creation time:	15. 06. 2019 21:17

#	Modifying user name:	WinNT
#	Modification time:	15. 06. 2019 21:17

#	Program:	/corina/corina34_cracker 3.40 0067  02.08.2006

@<TRIPOS>MOLECULE
ASD08170705
  60   63    0    0    0
SMALL
NO_CHARGES


@<TRIPOS>ATOM
   1 N1            -0.0155     1.2910     0.0091 N.2     
   2 C2             0.0021    -0.0041     0.0020 C.2     
   3 C3            -1.2027    -0.9094     0.0079 C.3     
   4 C4            -5.3326    -3.9583    -4.2960 C.3     
   5 C5            -6.5281    -4.8589    -4.1203 C.2     
   6 N6            -7.7625    -4.4793    -4.0211 N.2     
   7 N7            -8.6241    -5.3909    -3.8780 N.2     
   8 C8            -8.2024    -6.6190    -3.8429 C.2     
   9 S9            -6.4985    -6.6197    -4.0204 S.3     
  10 N10           -9.0022    -7.7466    -3.6920 N.am    
  11 S11            1.6895    -0.5178    -0.0169 S.3     
  12 C12            2.1699     1.1266    -0.0126 C.2     
  13 N13            1.1058     1.8712     0.0015 N.2     
  14 N14            3.4820     1.5878    -0.0231 N.am    
  15 C15            3.7307     2.9124    -0.0183 C.2     
  16 O16            2.8104     3.7022    -0.0049 O.2     
  17 C17            5.1524     3.4121    -0.0296 C.3     
  18 C18            5.1552     4.9191    -0.0214 C.ar    
  19 C19            5.1683     5.6122     1.1739 C.ar    
  20 N20            5.1709     6.9309     1.1891 N.ar    
  21 C21            5.1616     7.6372     0.0757 C.ar    
  22 C22            5.1487     7.0129    -1.1575 C.ar    
  23 C23            5.1505     5.6277    -1.2134 C.ar    
  24 C24          -10.3376    -7.6139    -3.5673 C.2     
  25 O25          -10.8419    -6.5110    -3.5867 O.2     
  26 C26          -11.2043    -8.8358    -3.4037 C.3     
  27 C27          -12.6470    -8.4164    -3.2865 C.ar    
  28 C28          -13.4373    -8.2961    -4.4191 C.ar    
  29 C29          -14.7594    -7.9078    -4.2632 C.ar    
  30 C30          -15.2418    -7.6555    -2.9931 C.ar    
  31 N31          -14.4607    -7.7799    -1.9377 N.ar    
  32 C32          -13.2006    -8.1524    -2.0478 C.ar    
  33 C33           -4.7849    -3.5641    -2.9229 C.3     
  34 S34           -3.3459    -2.4801    -3.1343 S.3     
  35 C35           -1.6236    -1.2075    -1.4325 C.3     
  36 C36           -2.8468    -2.1267    -1.4265 C.3     
  37 H37           -0.9538    -1.8421     0.5141 H       
  38 H38           -2.0230    -0.4191     0.5321 H       
  39 H39           -4.5608    -4.4846    -4.8576 H       
  40 H40           -5.6300    -3.0616    -4.8397 H       
  41 H41           -8.5990    -8.6287    -3.6764 H       
  42 H42            4.2180     0.9561    -0.0338 H       
  43 H43            5.6743     3.0430     0.8532 H       
  44 H44            5.6567     3.0527    -0.9266 H       
  45 H45            5.1762     5.0676     2.1066 H       
  46 H46            5.1637     8.7159     0.1278 H       
  47 H47            5.1407     7.5968    -2.0660 H       
  48 H48            5.1406     5.1127    -2.1627 H       
  49 H49          -11.0841    -9.4853    -4.2709 H       
  50 H50          -10.9079    -9.3736    -2.5032 H       
  51 H51          -13.0328    -8.4995    -5.3996 H       
  52 H52          -15.4038    -7.8035    -5.1236 H       
  53 H53          -16.2703    -7.3527    -2.8632 H       
  54 H54          -12.5915    -8.2433    -1.1606 H       
  55 H55           -5.5567    -3.0379    -2.3612 H       
  56 H56           -4.4875    -4.4608    -2.3792 H       
  57 H57           -1.8725    -0.2748    -1.9388 H       
  58 H58           -0.8033    -1.6978    -1.9567 H       
  59 H59           -3.6671    -1.6364    -0.9023 H       
  60 H60           -2.5979    -3.0593    -0.9203 H       
@<TRIPOS>BOND
   1    1    2 2
   2    1   13 1
   3    2    3 1
   4    2   11 1
   5    3   35 1
   6    3   37 1
   7    3   38 1
   8    4    5 1
   9    4   33 1
  10    4   39 1
  11    4   40 1
  12    5    6 2
  13    5    9 1
  14    6    7 1
  15    7    8 2
  16    8    9 1
  17    8   10 1
  18   10   24 am
  19   10   41 1
  20   11   12 1
  21   12   13 2
  22   12   14 1
  23   14   15 am
  24   14   42 1
  25   15   16 2
  26   15   17 1
  27   17   18 1
  28   17   43 1
  29   17   44 1
  30   18   19 ar
  31   18   23 ar
  32   19   20 ar
  33   19   45 1
  34   20   21 ar
  35   21   22 ar
  36   21   46 1
  37   22   23 ar
  38   22   47 1
  39   23   48 1
  40   24   25 2
  41   24   26 1
  42   26   27 1
  43   26   49 1
  44   26   50 1
  45   27   28 ar
  46   27   32 ar
  47   28   29 ar
  48   28   51 1
  49   29   30 ar
  50   29   52 1
  51   30   31 ar
  52   30   53 1
  53   31   32 ar
  54   32   54 1
  55   33   34 1
  56   33   55 1
  57   33   56 1
  58   34   36 1
  59   35   36 1
  60   35   57 1
  61   35   58 1
  62   36   59 1
  63   36   60 1

#	End of record

