#	Name: ASD00070001
#	Creating user name:	WinNT
#	Creation time:	15. 06. 2019 18:29

#	Modifying user name:	WinNT
#	Modification time:	15. 06. 2019 18:29

#	Program:	/corina/corina34_cracker 3.40 0067  02.08.2006

@<TRIPOS>MOLECULE
ASD00070001
  43   44    0    0    0
SMALL
NO_CHARGES


@<TRIPOS>ATOM
   1 C1             0.0503     1.4507     0.1705 C.ar    
   2 C2             0.0294     0.0787     0.0724 C.ar    
   3 C3            -1.1921    -0.5926     0.0485 C.ar    
   4 C4            -2.3811     0.1128     0.1181 C.ar    
   5 C5            -2.3551     1.4912     0.2116 C.ar    
   6 C6            -1.1458     2.1545     0.2401 C.ar    
   7 C7             1.3321     2.2409     0.2129 C.3     
   8 C8             2.4994     1.3995    -0.2989 C.3     
   9 C9             2.4948     0.0604     0.4478 C.3     
  10 C10            1.2856    -0.7474    -0.0195 C.3     
  11 O11           -1.2157    -1.9482    -0.0442 O.3     
  12 N12            3.7289    -0.6778     0.1476 N.3     
  13 C13            3.8099    -1.9121     0.9399 C.3     
  14 C14            4.1814    -1.5680     2.3836 C.3     
  15 C15            4.1477    -2.8384     3.2356 C.3     
  16 C16            3.8334    -0.9664    -1.2890 C.3     
  17 C17            5.2718    -1.3647    -1.6257 C.3     
  18 C18            5.4116    -1.5393    -3.1393 C.3     
  19 H19           -3.3250    -0.4118     0.0991 H       
  20 H20           -3.2792     2.0477     0.2640 H       
  21 H21           -1.1287     3.2319     0.3131 H       
  22 H22            1.2279     3.1284    -0.4114 H       
  23 H23            1.5322     2.5462     1.2399 H       
  24 H24            2.3840     1.2238    -1.3685 H       
  25 H25            3.4379     1.9211    -0.1113 H       
  26 H26            2.4248     0.2386     1.5208 H       
  27 H27            1.1805    -1.6325     0.6078 H       
  28 H28            1.4377    -1.0564    -1.0536 H       
  29 H29           -1.2066    -2.4011     0.8101 H       
  30 H30            2.8446    -2.4182     0.9238 H       
  31 H31            4.5706    -2.5671     0.5152 H       
  32 H32            5.1836    -1.1401     2.4088 H       
  33 H33            3.4678    -0.8457     2.7801 H       
  34 H34            4.4123    -2.5933     4.2641 H       
  35 H35            3.1455    -3.2663     3.2104 H       
  36 H36            4.8612    -3.5608     2.8391 H       
  37 H37            3.1604    -1.7847    -1.5451 H       
  38 H38            3.5594    -0.0786    -1.8589 H       
  39 H39            5.9537    -0.5855    -1.2853 H       
  40 H40            5.5149    -2.3034    -1.1278 H       
  41 H41            6.4363    -1.8230    -3.3792 H       
  42 H42            4.7296    -2.3184    -3.4797 H       
  43 H43            5.1684    -0.6006    -3.6373 H       
@<TRIPOS>BOND
   1    1    2 ar
   2    1    7 1
   3    1    6 ar
   4    2    3 ar
   5    2   10 1
   6    3    4 ar
   7    3   11 1
   8    4    5 ar
   9    4   19 1
  10    5    6 ar
  11    5   20 1
  12    6   21 1
  13    7    8 1
  14    7   22 1
  15    7   23 1
  16    8    9 1
  17    8   24 1
  18    8   25 1
  19    9   10 1
  20    9   12 1
  21    9   26 1
  22   10   27 1
  23   10   28 1
  24   11   29 1
  25   12   13 1
  26   12   16 1
  27   13   14 1
  28   13   30 1
  29   13   31 1
  30   14   15 1
  31   14   32 1
  32   14   33 1
  33   15   34 1
  34   15   35 1
  35   15   36 1
  36   16   17 1
  37   16   37 1
  38   16   38 1
  39   17   18 1
  40   17   39 1
  41   17   40 1
  42   18   41 1
  43   18   42 1
  44   18   43 1

#	End of record

