#	Name: ASD01840217
#	Creating user name:	WinNT
#	Creation time:	15. 06. 2019 19:37

#	Modifying user name:	WinNT
#	Modification time:	15. 06. 2019 19:37

#	Program:	/corina/corina34_cracker 3.40 0067  02.08.2006

@<TRIPOS>MOLECULE
ASD01840217
  43   46    0    0    0
SMALL
NO_CHARGES


@<TRIPOS>ATOM
   1 C1            -0.1661     1.0973     0.2346 C.ar    
   2 C2            -0.1063    -0.2725     0.1055 C.ar    
   3 N3             1.0640    -0.8868     0.0650 N.ar    
   4 N4             2.1770    -0.2579     0.1415 N.ar    
   5 C5             1.0516     1.8107     0.3207 C.ar    
   6 C6             2.6089     3.5677     0.5101 C.2     
   7 C7             1.2953     3.2346     0.4589 C.2     
   8 C8             2.2396     1.0699     0.2684 C.ar    
   9 S9             3.6254     2.1447     0.3913 S.3     
  10 N10            0.2743     4.1725     0.5324 N.pl3   
  11 C11            3.1112     4.9340     0.6468 C.2     
  12 N12            4.4387     5.1630     0.6883 N.am    
  13 O13            2.3302     5.8649     0.7232 O.2     
  14 C14            4.9419     6.5320     0.8253 C.3     
  15 C15           -1.4903     1.8153     0.2765 C.3     
  16 C16           -1.3789    -1.0742     0.0108 C.3     
  17 C17            6.4487     6.5137     0.8461 C.ar    
  18 C18            7.1251     6.3867     2.0467 C.ar    
  19 C19            7.1600     6.6178    -0.3348 C.ar    
  20 C20            8.5396     6.6047    -0.3211 C.ar    
  21 C21            9.2278     6.4853     0.8835 C.ar    
  22 C22            8.5019     6.3692     2.0623 C.ar    
  23 O23           10.5673     6.4622     1.1253 O.3     
  24 C24           10.8042     5.8915     2.4235 C.3     
  25 C25            9.5056     6.2266     3.1900 C.3     
  26 H26            0.4599     5.1068     0.3493 H       
  27 H27           -0.6246     3.8934     0.7667 H       
  28 H28            5.0609     4.4214     0.6274 H       
  29 H29            4.5975     7.1318    -0.0172 H       
  30 H30            4.5710     6.9642     1.7547 H       
  31 H31           -1.7782     1.9865     1.3137 H       
  32 H32           -1.4014     2.7719    -0.2385 H       
  33 H33           -2.2492     1.2069    -0.2156 H       
  34 H34           -1.6706    -1.1704    -1.0350 H       
  35 H35           -1.2167    -2.0649     0.4354 H       
  36 H36           -2.1698    -0.5670     0.5634 H       
  37 H37            6.5733     6.3018     2.9712 H       
  38 H38            6.6330     6.7095    -1.2730 H       
  39 H39            9.0877     6.6871    -1.2480 H       
  40 H40           10.9362     4.8118     2.3524 H       
  41 H41           11.6681     6.3568     2.8981 H       
  42 H42            9.6110     7.1628     3.7383 H       
  43 H43            9.2258     5.4138     3.8601 H       
@<TRIPOS>BOND
   1    1    2 ar
   2    1    5 ar
   3    1   15 1
   4    2    3 ar
   5    2   16 1
   6    3    4 ar
   7    4    8 ar
   8    5    8 ar
   9    5    7 1
  10    6    7 2
  11    6    9 1
  12    6   11 1
  13    7   10 1
  14    8    9 1
  15   10   26 1
  16   10   27 1
  17   11   12 am
  18   11   13 2
  19   12   14 1
  20   12   28 1
  21   14   17 1
  22   14   29 1
  23   14   30 1
  24   15   31 1
  25   15   32 1
  26   15   33 1
  27   16   34 1
  28   16   35 1
  29   16   36 1
  30   17   19 ar
  31   17   18 ar
  32   18   22 ar
  33   18   37 1
  34   19   20 ar
  35   19   38 1
  36   20   21 ar
  37   20   39 1
  38   21   23 1
  39   21   22 ar
  40   22   25 1
  41   23   24 1
  42   24   25 1
  43   24   40 1
  44   24   41 1
  45   25   42 1
  46   25   43 1

#	End of record

