#	Name: ASD02180002
#	Creating user name:	WinNT
#	Creation time:	15. 06. 2019 20:18

#	Modifying user name:	WinNT
#	Modification time:	15. 06. 2019 20:18

#	Program:	/corina/corina34_cracker 3.40 0067  02.08.2006

@<TRIPOS>MOLECULE
ASD02180002
  20   20    0    0    0
SMALL
NO_CHARGES


@<TRIPOS>ATOM
   1 C1            -0.0167     1.3781     0.0096 C.ar    
   2 C2             0.0021    -0.0041     0.0020 C.ar    
   3 C3             1.2084    -0.6789    -0.0132 C.ar    
   4 C4             2.3960     0.0285    -0.0212 C.ar    
   5 C5             2.3773     1.4107    -0.0145 C.ar    
   6 C6             1.1709     2.0855     0.0021 C.ar    
   7 C7             3.7112    -0.7071    -0.0368 C.3     
   8 C8             4.1362    -0.9461    -1.4627 C.2     
   9 C9             5.4126    -1.6603    -1.7502 C.2     
  10 O10            3.4427    -0.5590    -2.3726 O.2     
  11 O11            5.7923    -1.8738    -3.0237 O.3     
  12 O12            6.1090    -2.0491    -0.8366 O.2     
  13 H13           -0.9592     1.9054     0.0170 H       
  14 H14           -0.9258    -0.5567     0.0083 H       
  15 H15            1.2231    -1.7588    -0.0184 H       
  16 H16            3.3051     1.9634    -0.0201 H       
  17 H17            1.1563     3.1654     0.0077 H       
  18 H18            4.4676    -0.1100     0.4726 H       
  19 H19            3.5986    -1.6635     0.4740 H       
  20 H20            6.6277    -2.3412    -3.1603 H       
@<TRIPOS>BOND
   1    1    2 ar
   2    1    6 ar
   3    1   13 1
   4    2    3 ar
   5    2   14 1
   6    3    4 ar
   7    3   15 1
   8    4    5 ar
   9    4    7 1
  10    5    6 ar
  11    5   16 1
  12    6   17 1
  13    7    8 1
  14    7   18 1
  15    7   19 1
  16    8    9 1
  17    8   10 2
  18    9   11 1
  19    9   12 2
  20   11   20 1

#	End of record

