#	Name: ASD02030728
#	Creating user name:	WinNT
#	Creation time:	15. 06. 2019 20:15

#	Modifying user name:	WinNT
#	Modification time:	15. 06. 2019 20:15

#	Program:	/corina/corina34_cracker 3.40 0067  02.08.2006

@<TRIPOS>MOLECULE
ASD02030728
  27   28    0    0    0
SMALL
NO_CHARGES


@<TRIPOS>ATOM
   1 N1            -0.0169     1.3957     0.0097 N.2     
   2 N2             0.0021    -0.0041     0.0020 N.am    
   3 C3             1.1646    -0.6797    -0.0123 C.2     
   4 N4             2.3448    -0.0325    -0.0200 N.am    
   5 C5             2.3757     1.3164    -0.0131 C.2     
   6 C6             1.1074     2.0610     0.0026 C.2     
   7 O7             1.1494    -1.8958    -0.0178 O.2     
   8 O8             3.4386     1.9089    -0.0192 O.2     
   9 C9            -1.2627    -0.7434     0.0101 C.3     
  10 C10           -1.6892    -1.0085     1.4554 C.3     
  11 C11           -2.9902    -1.7690     1.4637 C.ar    
  12 C12           -3.0767    -2.9672     2.1474 C.ar    
  13 C13           -4.2782    -3.6587     2.1492 C.ar    
  14 C14           -5.3526    -3.1167     1.4601 C.ar    
  15 C15           -5.1912    -1.9139     0.7993 C.ar    
  16 N16           -4.0344    -1.2810     0.8233 N.ar    
  17 O17            1.1051     3.4197     0.0094 O.3     
  18 H18            3.1737    -0.5362    -0.0303 H       
  19 H19           -2.0303    -0.1556    -0.4933 H       
  20 H20           -1.1322    -1.6923    -0.5101 H       
  21 H21           -0.9215    -1.5962     1.9587 H       
  22 H22           -1.8197    -0.0596     1.9756 H       
  23 H23           -2.2190    -3.3600     2.6732 H       
  24 H24           -4.3750    -4.5974     2.6744 H       
  25 H25           -6.3035    -3.6284     1.4399 H       
  26 H26           -6.0231    -1.4852     0.2604 H       
  27 H27            0.2211     3.8114     0.0197 H       
@<TRIPOS>BOND
   1    1    2 1
   2    1    6 2
   3    2    3 am
   4    2    9 1
   5    3    4 am
   6    3    7 2
   7    4    5 am
   8    4   18 1
   9    5    6 1
  10    5    8 2
  11    6   17 1
  12    9   10 1
  13    9   19 1
  14    9   20 1
  15   10   11 1
  16   10   21 1
  17   10   22 1
  18   11   12 ar
  19   11   16 ar
  20   12   13 ar
  21   12   23 1
  22   13   14 ar
  23   13   24 1
  24   14   15 ar
  25   14   25 1
  26   15   16 ar
  27   15   26 1
  28   17   27 1

#	End of record

