#	Name: ASD01913575
#	Creating user name:	WinNT
#	Creation time:	15. 06. 2019 20:01

#	Modifying user name:	WinNT
#	Modification time:	15. 06. 2019 20:01

#	Program:	/corina/corina34_cracker 3.40 0067  02.08.2006

@<TRIPOS>MOLECULE
ASD01913575
  37   39    0    0    0
SMALL
NO_CHARGES


@<TRIPOS>ATOM
   1 C1            -0.1230     1.3550    -0.8778 C.ar    
   2 C2            -0.1849    -0.0358    -0.9214 C.ar    
   3 C3             0.4358    -0.6903    -1.9827 C.ar    
   4 N4             1.0569     0.0274    -2.9038 N.ar    
   5 C5             1.0929     1.3426    -2.8266 C.ar    
   6 N6             0.5182     1.9990    -1.8387 N.ar    
   7 C7            -0.9138    -2.1451     0.0053 C.ar    
   8 C8             0.2306    -2.9210     0.1829 C.ar    
   9 C9             0.1310    -4.2984     0.1137 C.ar    
  10 N10           -1.0252    -4.8836    -0.1171 N.ar    
  11 C11           -2.1416    -4.1847    -0.2925 C.ar    
  12 C12           -2.1237    -2.7958    -0.2371 C.ar    
  13 C13           -3.4174    -4.8923    -0.5495 C.2     
  14 N14           -3.4420    -6.2387    -0.6045 N.am    
  15 N15           -0.8519    -0.7558     0.0740 N.pl3   
  16 O16           -4.4418    -4.2588    -0.7108 O.2     
  17 C17           -4.6561    -6.9083    -0.7411 C.ar    
  18 C18           -4.6874    -8.2968    -0.6814 C.ar    
  19 C19           -5.9002    -8.9493    -0.8181 C.ar    
  20 C20           -7.0442    -8.1871    -1.0105 C.ar    
  21 C21           -6.9394    -6.8108    -1.0595 C.ar    
  22 N22           -5.7702    -6.2161    -0.9210 N.ar    
  23 C23           -1.4858    -0.0485     1.1895 C.3     
  24 H24           -0.5954     1.8997    -0.0737 H       
  25 H25            0.4106    -1.7677    -2.0522 H       
  26 H26            1.6088     1.8988    -3.5953 H       
  27 H27            1.1846    -2.4514     0.3721 H       
  28 H28            1.0152    -4.9031     0.2507 H       
  29 H29           -3.0321    -2.2293    -0.3800 H       
  30 H30           -2.6144    -6.7416    -0.5490 H       
  31 H31           -3.7775    -8.8588    -0.5308 H       
  32 H32           -5.9553   -10.0270    -0.7763 H       
  33 H33           -8.0062    -8.6653    -1.1210 H       
  34 H34           -7.8268    -6.2136    -1.2090 H       
  35 H35           -2.5163     0.1924     0.9283 H       
  36 H36           -1.4744    -0.6832     2.0756 H       
  37 H37           -0.9383     0.8714     1.3945 H       
@<TRIPOS>BOND
   1    1    2 ar
   2    1    6 ar
   3    1   24 1
   4    2    3 ar
   5    2   15 1
   6    3    4 ar
   7    3   25 1
   8    4    5 ar
   9    5    6 ar
  10    5   26 1
  11    7    8 ar
  12    7   12 ar
  13    7   15 1
  14    8    9 ar
  15    8   27 1
  16    9   10 ar
  17    9   28 1
  18   10   11 ar
  19   11   12 ar
  20   11   13 1
  21   12   29 1
  22   13   14 am
  23   13   16 2
  24   14   17 1
  25   14   30 1
  26   15   23 1
  27   17   18 ar
  28   17   22 ar
  29   18   19 ar
  30   18   31 1
  31   19   20 ar
  32   19   32 1
  33   20   21 ar
  34   20   33 1
  35   21   22 ar
  36   21   34 1
  37   23   35 1
  38   23   36 1
  39   23   37 1

#	End of record

