#	Name: ASD01900835
#	Creating user name:	WinNT
#	Creation time:	15. 06. 2019 19:52

#	Modifying user name:	WinNT
#	Modification time:	15. 06. 2019 19:52

#	Program:	/corina/corina34_cracker 3.40 0067  02.08.2006

@<TRIPOS>MOLECULE
ASD01900835
  39   42    0    0    0
SMALL
NO_CHARGES


@<TRIPOS>ATOM
   1 C1             0.3966     3.8214     0.6810 C.ar    
   2 C2             0.8447     4.7780     1.6119 C.ar    
   3 C3             2.2145     5.0014     1.7467 C.ar    
   4 C4             3.0771     4.2688     0.9552 C.ar    
   5 C5             2.5650     3.3411     0.0575 C.ar    
   6 N6             1.2715     3.1426    -0.0573 N.ar    
   7 N7            -1.4086     4.6972     1.6778 N.2     
   8 N8            -0.2679     5.3045     2.2130 N.pl3   
   9 C9            -1.0655     3.8228     0.7695 C.2     
  10 N10           -1.9375     3.0251     0.0221 N.pl3   
  11 C11           -3.3199     3.2111     0.1279 C.ar    
  12 C12           -3.8334     4.4767     0.3821 C.ar    
  13 C13           -5.1996     4.6592     0.4859 C.ar    
  14 C14           -6.0581     3.5769     0.3360 C.ar    
  15 C15           -5.5449     2.3142     0.0828 C.ar    
  16 C16           -4.1798     2.1317    -0.0269 C.ar    
  17 O17           -7.4027     3.7563     0.4381 O.3     
  18 C18           -8.0694     4.2096    -0.6529 C.ar    
  19 C19           -9.4280     4.4868    -0.5631 C.ar    
  20 C20          -10.0962     4.9486    -1.6833 C.ar    
  21 C21           -9.3785     5.1178    -2.8597 C.ar    
  22 C22           -8.0300     4.8225    -2.8767 C.ar    
  23 N23           -7.4189     4.3887    -1.7906 N.ar    
  24 C24          -11.5696     5.2604    -1.6278 C.3     
  25 F25          -11.7495     6.5990    -1.2631 F       
  26 F26          -12.1408     5.0388    -2.8855 F       
  27 F27          -12.1861     4.4329    -0.6832 F       
  28 F28           -5.7000     5.8894     0.7336 F       
  29 H29            2.5909     5.7283     2.4513 H       
  30 H30            4.1440     4.4168     1.0336 H       
  31 H31            3.2442     2.7713    -0.5593 H       
  32 H32           -0.2650     5.9865     2.9027 H       
  33 H33           -1.5838     2.3428    -0.5697 H       
  34 H34           -3.1655     5.3173     0.4989 H       
  35 H35           -6.2128     1.4735    -0.0333 H       
  36 H36           -3.7811     1.1485    -0.2289 H       
  37 H37           -9.9554     4.3434     0.3684 H       
  38 H38           -9.8700     5.4762    -3.7521 H       
  39 H39           -7.4673     4.9523    -3.7893 H       
@<TRIPOS>BOND
   1    1    2 ar
   2    1    6 ar
   3    1    9 1
   4    2    3 ar
   5    2    8 1
   6    3    4 ar
   7    3   29 1
   8    4    5 ar
   9    4   30 1
  10    5    6 ar
  11    5   31 1
  12    7    8 1
  13    7    9 2
  14    8   32 1
  15    9   10 1
  16   10   11 1
  17   10   33 1
  18   11   12 ar
  19   11   16 ar
  20   12   13 ar
  21   12   34 1
  22   13   14 ar
  23   13   28 1
  24   14   15 ar
  25   14   17 1
  26   15   16 ar
  27   15   35 1
  28   16   36 1
  29   17   18 1
  30   18   19 ar
  31   18   23 ar
  32   19   20 ar
  33   19   37 1
  34   20   21 ar
  35   20   24 1
  36   21   22 ar
  37   21   38 1
  38   22   23 ar
  39   22   39 1
  40   24   25 1
  41   24   26 1
  42   24   27 1

#	End of record

