#	Name: ASD03081136
#	Creating user name:	WinNT
#	Creation time:	15. 06. 2019 20:27

#	Modifying user name:	WinNT
#	Modification time:	15. 06. 2019 20:27

#	Program:	/corina/corina34_cracker 3.40 0067  02.08.2006

@<TRIPOS>MOLECULE
ASD03081136
  29   32    0    0    0
SMALL
NO_CHARGES


@<TRIPOS>ATOM
   1 O1            -0.0144     1.2085     0.0087 O.3     
   2 N2             0.0021    -0.0041     0.0020 N.2     
   3 C3             1.2348    -0.4426    -0.0121 C.2     
   4 N4             2.0461     0.6354    -0.0141 N.2     
   5 C5             1.2415     1.6828    -0.0008 C.2     
   6 C6             3.0147    -2.1967    -0.0376 C.ar    
   7 C7             1.6620    -1.8642    -0.0234 C.ar    
   8 C8             0.7138    -2.8903    -0.0194 C.ar    
   9 C9             1.1634    -4.1999    -0.0299 C.ar    
  10 C10            2.5235    -4.4479    -0.0438 C.ar    
  11 N11            3.3952    -3.4577    -0.0472 N.ar    
  12 C12            2.3994     5.7595     0.0092 C.2     
  13 C13            3.4110     4.7747    -0.0063 C.2     
  14 C14            3.0648     3.4640    -0.0091 C.2     
  15 C15            1.6457     3.1028     0.0030 C.2     
  16 C16            0.7002     4.0837     0.0174 C.2     
  17 N17            1.0666     5.3993     0.0205 N.pl3   
  18 C18            0.3476     6.5520     0.0339 C.2     
  19 N19            1.1675     7.5710     0.0313 N.2     
  20 C20            2.4297     7.1389     0.0220 C.2     
  21 H21            3.7582    -1.4134    -0.0454 H       
  22 H22           -0.3429    -2.6677    -0.0081 H       
  23 H23            0.4592    -5.0187    -0.0269 H       
  24 H24            2.8779    -5.4681    -0.0516 H       
  25 H25            4.4517     5.0632    -0.0154 H       
  26 H26            3.8250     2.6969    -0.0212 H       
  27 H27           -0.3468     3.8189     0.0260 H       
  28 H28           -0.7304     6.6166     0.0447 H       
  29 H29            3.3152     7.7572     0.0224 H       
@<TRIPOS>BOND
   1    1    2 1
   2    1    5 1
   3    2    3 2
   4    3    4 1
   5    3    7 1
   6    4    5 2
   7    5   15 1
   8    6    7 ar
   9    6   11 ar
  10    6   21 1
  11    7    8 ar
  12    8    9 ar
  13    8   22 1
  14    9   10 ar
  15    9   23 1
  16   10   11 ar
  17   10   24 1
  18   12   13 1
  19   12   17 1
  20   12   20 2
  21   13   14 2
  22   13   25 1
  23   14   15 1
  24   14   26 1
  25   15   16 2
  26   16   17 1
  27   16   27 1
  28   17   18 1
  29   18   19 2
  30   18   28 1
  31   19   20 1
  32   20   29 1

#	End of record

