#	Name: ASD06590001
#	Creating user name:	WinNT
#	Creation time:	15. 06. 2019 21:06

#	Modifying user name:	WinNT
#	Modification time:	15. 06. 2019 21:06

#	Program:	/corina/corina34_cracker 3.40 0067  02.08.2006

@<TRIPOS>MOLECULE
ASD06590001
 285  288    0    0    0
SMALL
NO_CHARGES


@<TRIPOS>ATOM
   1 C1            -0.6205     8.7594    -2.3831 C.2     
   2 O2            -0.2159     7.6192    -2.2983 O.2     
   3 N3             1.7100     9.4441    -2.4530 N.3     
   4 C4             0.3330     9.8733    -2.7314 C.3     
   5 C5             0.1960    10.2162    -4.2162 C.3     
   6 C6             1.0714    11.4278    -4.5426 C.3     
   7 C7             0.9345    11.7708    -6.0274 C.3     
   8 N8             1.7727    12.9309    -6.3400 N.pl3   
   9 C9             1.8121    13.4248    -7.6220 C.2     
  10 N10            1.2073    12.7888    -8.5835 N.2     
  11 N11            2.4936    14.5963    -7.8903 N.am    
  12 C12           -4.2491     8.3390    -2.2438 C.2     
  13 O13           -4.4500     9.4182    -2.7596 O.2     
  14 N14           -1.9238     9.0296    -2.1714 N.am    
  15 C15           -2.8518     7.9459    -1.8387 C.3     
  16 C16           -2.8121     7.6851    -0.3316 C.3     
  17 C17           -1.4270     7.1663     0.0598 C.3     
  18 C18           -1.3873     6.9054     1.5669 C.3     
  19 N19           -0.0610     6.4087     1.9417 N.pl3   
  20 C20            0.2130     6.1030     3.2539 C.2     
  21 N21            1.3930     5.6610     3.5873 N.2     
  22 N22           -0.7576     6.2635     4.2142 N.pl3   
  23 C23           -7.6316     7.1182    -1.5871 C.2     
  24 O24           -7.2460     6.3374    -0.7430 O.2     
  25 N25           -5.2755     7.4914    -2.0329 N.am    
  26 C26           -6.6339     7.8736    -2.4267 C.3     
  27 C27           -6.8507     7.5364    -3.9032 C.3     
  28 C28           -5.9228     8.3958    -4.7642 C.3     
  29 C29           -6.0488     7.9723    -6.2290 C.3     
  30 C30           -6.3147     9.8681    -4.6234 C.3     
  31 C31          -11.2266     6.4661    -1.7052 C.2     
  32 O32          -11.3352     6.9535    -2.8104 O.2     
  33 N33           -8.9524     7.3102    -1.7744 N.am    
  34 C34           -9.9223     6.5758    -0.9582 C.3     
  35 C35          -10.1497     7.3216     0.3582 C.3     
  36 C36           -8.8742     7.3242     1.1608 C.2     
  37 C37           -8.2455     8.4127     1.6441 C.2     
  38 N38           -7.1347     7.9664     2.3078 N.pl3   
  39 C39           -7.1232     6.6198     2.2070 C.2     
  40 N40           -8.1692     6.2425     1.5239 N.2     
  41 C41          -14.6693     5.5479    -0.8879 C.2     
  42 O42          -14.4376     5.5174     0.3022 O.2     
  43 N43          -12.2723     5.8265    -1.1450 N.am    
  44 C44          -13.5402     5.7200    -1.8711 C.3     
  45 C45          -13.4913     4.5114    -2.8081 C.3     
  46 O46          -13.3964     3.3131    -2.0354 O.3     
  47 C47          -18.1851     4.5600    -1.0497 C.2     
  48 O48          -18.1568     4.3606    -2.2457 O.2     
  49 N49          -15.9364     5.4281    -1.3311 N.am    
  50 C50          -17.0340     5.2608    -0.3753 C.3     
  51 C51          -17.4926     6.6339     0.1201 C.3     
  52 C52          -16.3194     7.3524     0.7896 C.3     
  53 O53          -17.9568     7.4090    -0.9870 O.3     
  54 C54          -21.6308     3.7450    -0.1412 C.2     
  55 O55          -21.5497     4.3321     0.9169 O.2     
  56 N56          -19.2459     4.1548    -0.3239 N.am    
  57 C57          -20.4015     3.5495    -0.9906 C.3     
  58 C58          -20.1505     2.0531    -1.1877 C.3     
  59 C59          -18.9781     1.8552    -2.1507 C.3     
  60 C60          -18.7271     0.3588    -2.3478 C.3     
  61 N61          -17.6045     0.1693    -3.2698 N.pl3   
  62 C62          -17.1931    -1.1002    -3.6002 C.2     
  63 N63          -16.1943    -1.2689    -4.4205 N.2     
  64 N64          -17.8352    -2.1919    -3.0654 N.pl3   
  65 C65          -24.1528     2.0712     1.0807 C.2     
  66 O66          -23.3648     1.1647     0.9127 O.2     
  67 N67          -22.8204     3.2673    -0.5573 N.am    
  68 C68          -23.9930     3.3599     0.3160 C.3     
  69 C69          -25.2421     3.6080    -0.5319 C.3     
  70 C70          -25.1546     4.9711    -1.1685 C.2     
  71 O71          -24.2416     5.7165    -0.8824 O.2     
  72 N72          -26.0908     5.3620    -2.0557 N.am    
  73 C73          -26.7699     0.5008     3.0925 C.2     
  74 O74          -27.5882     1.3416     2.7854 O.2     
  75 N75          -25.1714     1.9260     1.9512 N.am    
  76 C76          -25.3267     0.6732     2.6946 C.3     
  77 C77          -24.4529     0.7133     3.9499 C.3     
  78 C78          -23.0008     0.7621     3.5498 C.ar    
  79 C79          -22.3784     1.9817     3.3579 C.ar    
  80 C80          -21.0475     2.0291     2.9907 C.ar    
  81 C81          -20.3353     0.8516     2.8149 C.ar    
  82 O82          -19.0258     0.8956     2.4541 O.3     
  83 C83          -20.9620    -0.3709     3.0085 C.ar    
  84 C84          -22.2917    -0.4128     3.3807 C.ar    
  85 C85          -28.6374    -1.6370     5.3958 C.2     
  86 O86          -27.6244    -2.0816     5.8928 O.2     
  87 N87          -27.1514    -0.5878     3.7897 N.am    
  88 C88          -28.5544    -0.7554     4.1765 C.3     
  89 C89          -29.3269    -1.4028     3.0254 C.3     
  90 C90          -28.7185    -2.7703     2.7083 C.3     
  91 C91          -29.5653    -3.4708     1.6439 C.3     
  92 C92          -29.2426    -0.5076     1.7875 C.3     
  93 C93          -31.2683    -3.4566     7.1653 C.2     
  94 O94          -32.0828    -3.2383     6.2936 O.2     
  95 N95          -29.8375    -1.9315     5.9341 N.am    
  96 C96          -29.9182    -2.7886     7.1194 C.3     
  97 C97          -29.7267    -1.9388     8.3772 C.3     
  98 C98          -28.3314    -1.3695     8.3912 C.2     
  99 C99          -28.0095    -0.0663     8.4994 C.2     
 100 N100         -26.6430     0.0078     8.4706 N.pl3   
 101 C101         -26.1771    -1.2536     8.3457 C.2     
 102 N102         -27.1924    -2.0724     8.3039 N.2     
 103 C103         -33.2174    -5.3055     9.6443 C.2     
 104 O104         -32.4365    -5.0448    10.5348 O.2     
 105 N105         -31.5705    -4.2967     8.1749 N.am    
 106 C106         -32.8829    -4.9461     8.2195 C.3     
 107 C107         -32.8528    -6.2161     7.3668 C.3     
 108 C108         -32.6368    -5.8403     5.8995 C.3     
 109 S109         -32.6010    -7.3461     4.8886 S.3     
 110 C110         -32.3406    -6.7055     3.2115 C.3     
 111 C111         -34.0950    -7.5993    11.6533 C.2     
 112 O112         -33.4513    -8.1965    10.8234 O.2     
 113 N113         -34.3845    -5.9165     9.9289 N.am    
 114 C114         -34.7097    -6.2659    11.3140 C.3     
 115 C115         -36.2289    -6.3486    11.4759 C.3     
 116 C116         -36.8325    -4.9854    11.2563 C.2     
 117 C117         -37.8023    -4.6823    10.3725 C.2     
 118 N118         -38.0514    -3.3426    10.5017 N.pl3   
 119 C119         -37.2245    -2.8732    11.4608 C.2     
 120 N120         -36.5020    -3.8623    11.9110 N.2     
 121 O121         -34.2625    -8.1235    12.8776 O.3     
 122 C122           3.0157    15.3188    -6.8794 C.2     
 123 O123           2.9637    14.8980    -5.7434 O.2     
 124 C124          11.8173    30.3629     0.0052 C.3     
 125 C125          11.1589    29.0117     0.2911 C.3     
 126 C126          10.6526    28.4039    -1.0185 C.3     
 127 C127           9.9942    27.0526    -0.7327 C.3     
 128 C128           9.4878    26.4448    -2.0423 C.3     
 129 C129           8.8295    25.0936    -1.7564 C.3     
 130 C130           8.3231    24.4858    -3.0660 C.3     
 131 C131           7.6647    23.1346    -2.7802 C.3     
 132 C132           7.1584    22.5268    -4.0898 C.3     
 133 C133           6.5000    21.1756    -3.8039 C.3     
 134 C134           5.9936    20.5678    -5.1135 C.3     
 135 C135           5.3353    19.2166    -4.8276 C.3     
 136 C136           4.8289    18.6087    -6.1372 C.3     
 137 C137           4.1705    17.2575    -5.8514 C.3     
 138 C138           3.6642    16.6497    -7.1610 C.3     
 139 H139           1.8433     9.2736    -1.4675 H       
 140 H140           1.9518     8.6294    -2.9969 H       
 141 H141           0.0984    10.7530    -2.1322 H       
 142 H142           0.5157     9.3646    -4.8168 H       
 143 H143          -0.8449    10.4489    -4.4409 H       
 144 H144           0.7518    12.2794    -3.9421 H       
 145 H145           2.1123    11.1951    -4.3180 H       
 146 H146           1.2542    10.9192    -6.6280 H       
 147 H147          -0.1064    12.0035    -6.2521 H       
 148 H148           2.2999    13.3505    -5.6422 H       
 149 H149           1.1729    13.1737    -9.4732 H       
 150 H150           2.5963    14.8988    -8.8062 H       
 151 H151          -2.2474     9.9415    -2.2392 H       
 152 H152          -2.5600     7.0411    -2.3718 H       
 153 H153          -3.0172     8.6125     0.2032 H       
 154 H154          -3.5654     6.9415    -0.0716 H       
 155 H155          -1.2219     6.2389    -0.4749 H       
 156 H156          -0.6736     7.9099    -0.2002 H       
 157 H157          -1.5924     7.8328     2.1017 H       
 158 H158          -2.1406     6.1618     1.8269 H       
 159 H159           0.6238     6.2954     1.2642 H       
 160 H160           1.5863     5.4454     4.5131 H       
 161 H161          -1.6357     6.5925     3.9660 H       
 162 H162          -0.5643     6.0479     5.1400 H       
 163 H163          -5.1149     6.6284    -1.6203 H       
 164 H164          -6.7684     8.9446    -2.2750 H       
 165 H165          -6.6297     6.4824    -4.0715 H       
 166 H166          -7.8872     7.7380    -4.1735 H       
 167 H167          -4.8927     8.2609    -4.4343 H       
 168 H168          -7.0789     8.1073    -6.5589 H       
 169 H169          -5.3877     8.5846    -6.8424 H       
 170 H170          -5.7696     6.9235    -6.3293 H       
 171 H171          -6.2249    10.1698    -3.5798 H       
 172 H172          -5.6536    10.4803    -5.2368 H       
 173 H173          -7.3448    10.0030    -4.9533 H       
 174 H174          -9.2608     7.9346    -2.4495 H       
 175 H175          -9.5387     5.5773    -0.7486 H       
 176 H176         -10.4483     8.3484     0.1472 H       
 177 H177         -10.9355     6.8242     0.9266 H       
 178 H178          -8.5576     9.4403     1.5296 H       
 179 H179          -6.4784     8.5150     2.7652 H       
 180 H180          -6.3746     5.9636     2.6257 H       
 181 H181         -12.1854     5.4367    -0.2610 H       
 182 H182         -13.7018     6.6261    -2.4550 H       
 183 H183         -14.3981     4.4832    -3.4123 H       
 184 H184         -12.6222     4.5927    -3.4608 H       
 185 H185         -13.3610     2.5051    -2.5654 H       
 186 H186         -16.1217     5.4525    -2.2829 H       
 187 H187         -16.6914     4.6651     0.4708 H       
 188 H188         -18.3009     6.5089     0.8405 H       
 189 H189         -15.5564     7.5753     0.0438 H       
 190 H190         -16.6708     8.2814     1.2387 H       
 191 H191         -15.8952     6.7126     1.5634 H       
 192 H192         -18.7015     7.0129    -1.4598 H       
 193 H193         -19.2443     4.2640     0.6399 H       
 194 H194         -20.5509     4.0237    -1.9606 H       
 195 H195         -19.9134     1.5949    -0.2276 H       
 196 H196         -21.0440     1.5864    -1.6024 H       
 197 H197         -19.2151     2.3134    -3.1108 H       
 198 H198         -18.0846     2.3220    -1.7360 H       
 199 H199         -18.4900    -0.0994    -1.3876 H       
 200 H200         -19.6206    -0.1079    -2.7624 H       
 201 H201         -17.1514     0.9395    -3.6471 H       
 202 H202         -15.9041    -2.1646    -4.6537 H       
 203 H203         -18.5785    -2.0664    -2.4549 H       
 204 H204         -17.5450    -3.0876    -3.2985 H       
 205 H205         -22.9002     2.8623    -1.4351 H       
 206 H206         -23.8600     4.1841     1.0168 H       
 207 H207         -25.3102     2.8474    -1.3098 H       
 208 H208         -26.1273     3.5593     0.1022 H       
 209 H209         -26.8210     4.7658    -2.2846 H       
 210 H210         -26.0345     6.2394    -2.4654 H       
 211 H211         -25.8016     2.6510     2.0856 H       
 212 H212         -25.0208    -0.1628     2.0656 H       
 213 H213         -24.6984     1.5994     4.5353 H       
 214 H214         -24.6351    -0.1794     4.5482 H       
 215 H215         -22.9332     2.8981     3.4949 H       
 216 H216         -20.5619     2.9820     2.8403 H       
 217 H217         -18.4126     0.9228     3.2013 H       
 218 H218         -20.4098    -1.2889     2.8719 H       
 219 H219         -22.7788    -1.3641     3.5358 H       
 220 H220         -26.4969    -1.2603     4.0353 H       
 221 H221         -28.9879     0.2189     4.4024 H       
 222 H222         -30.3708    -1.5275     3.3132 H       
 223 H223         -27.7027    -2.6384     2.3357 H       
 224 H224         -28.6975    -3.3773     3.6134 H       
 225 H225         -30.5811    -3.6027     2.0165 H       
 226 H226         -29.5862    -2.8638     0.7388 H       
 227 H227         -29.1318    -4.4451     1.4180 H       
 228 H228         -29.7930    -0.9689     0.9674 H       
 229 H229         -29.6761     0.4666     2.0134 H       
 230 H230         -28.1987    -0.3830     1.4997 H       
 231 H231         -30.6477    -1.5759     5.5366 H       
 232 H232         -29.1382    -3.5485     7.0721 H       
 233 H233         -30.4513    -1.1246     8.3795 H       
 234 H234         -29.8747    -2.5594     9.2610 H       
 235 H235         -28.6973     0.7613     8.5909 H       
 236 H236         -26.1090     0.8154     8.5289 H       
 237 H237         -25.1365    -1.5380     8.2933 H       
 238 H238         -30.9190    -4.4713     8.8720 H       
 239 H239         -33.6390    -4.2646     7.8296 H       
 240 H240         -32.0383    -6.8588     7.7010 H       
 241 H241         -33.7996    -6.7460     7.4706 H       
 242 H242         -33.4513    -5.1976     5.5654 H       
 243 H243         -31.6899    -5.3104     5.7958 H       
 244 H244         -32.3017    -7.5365     2.5072 H       
 245 H245         -33.1625    -6.0412     2.9447 H       
 246 H246         -31.4011    -6.1540     3.1750 H       
 247 H247         -35.0091    -6.1250     9.2167 H       
 248 H248         -34.3140    -5.5024    11.9838 H       
 249 H249         -36.6346    -7.0477    10.7446 H       
 250 H250         -36.4688    -6.6946    12.4813 H       
 251 H251         -38.2896    -5.3650     9.6922 H       
 252 H252         -38.7006    -2.8266     9.9985 H       
 253 H253         -37.1727    -1.8497    11.8016 H       
 254 H254         -33.8494    -8.9809    13.0484 H       
 255 H255          12.1780    30.7959     0.9382 H       
 256 H256          12.6551    30.2216    -0.6777 H       
 257 H257          11.0878    31.0337    -0.4486 H       
 258 H258          11.8884    28.3408     0.7448 H       
 259 H259          10.3212    29.1529     0.9739 H       
 260 H260           9.9231    29.0747    -1.4723 H       
 261 H261          11.4903    28.2626    -1.7014 H       
 262 H262          10.7237    26.3818    -0.2789 H       
 263 H263           9.1564    27.1939    -0.0498 H       
 264 H264           8.7583    27.1157    -2.4961 H       
 265 H265          10.3256    26.3036    -2.7251 H       
 266 H266           9.5590    24.4228    -1.3026 H       
 267 H267           7.9917    25.2349    -1.0736 H       
 268 H268           7.5936    25.1567    -3.5198 H       
 269 H269           9.1609    24.3446    -3.7489 H       
 270 H270           8.3942    22.4638    -2.3264 H       
 271 H271           6.8270    23.2759    -2.0973 H       
 272 H272           6.4289    23.1976    -4.5435 H       
 273 H273           7.9961    22.3855    -4.7726 H       
 274 H274           7.2295    20.5047    -3.3501 H       
 275 H275           5.6622    21.3168    -3.1210 H       
 276 H276           5.2642    21.2386    -5.5673 H       
 277 H277           6.8314    20.4265    -5.7963 H       
 278 H278           6.0648    18.5457    -4.3739 H       
 279 H279           4.4975    19.3578    -4.1448 H       
 280 H280           4.0994    19.2796    -6.5910 H       
 281 H281           5.6667    18.4675    -6.8201 H       
 282 H282           4.9000    16.5867    -5.3976 H       
 283 H283           3.3328    17.3988    -5.1685 H       
 284 H284           4.5020    16.5085    -7.8438 H       
 285 H285           2.9347    17.3206    -7.6148 H       
@<TRIPOS>BOND
   1    1    2 2
   2    1    4 1
   3    1   14 am
   4    3    4 1
   5    3  139 1
   6    3  140 1
   7    4    5 1
   8    4  141 1
   9    5    6 1
  10    5  142 1
  11    5  143 1
  12    6    7 1
  13    6  144 1
  14    6  145 1
  15    7    8 1
  16    7  146 1
  17    7  147 1
  18    8    9 1
  19    8  148 1
  20    9   10 2
  21    9   11 1
  22   10  149 1
  23   11  122 am
  24   11  150 1
  25   12   13 2
  26   12   15 1
  27   12   25 am
  28   14   15 1
  29   14  151 1
  30   15   16 1
  31   15  152 1
  32   16   17 1
  33   16  153 1
  34   16  154 1
  35   17   18 1
  36   17  155 1
  37   17  156 1
  38   18   19 1
  39   18  157 1
  40   18  158 1
  41   19   20 1
  42   19  159 1
  43   20   21 2
  44   20   22 1
  45   21  160 1
  46   22  161 1
  47   22  162 1
  48   23   24 2
  49   23   26 1
  50   23   33 am
  51   25   26 1
  52   25  163 1
  53   26   27 1
  54   26  164 1
  55   27   28 1
  56   27  165 1
  57   27  166 1
  58   28   29 1
  59   28   30 1
  60   28  167 1
  61   29  168 1
  62   29  169 1
  63   29  170 1
  64   30  171 1
  65   30  172 1
  66   30  173 1
  67   31   32 2
  68   31   34 1
  69   31   43 am
  70   33   34 1
  71   33  174 1
  72   34   35 1
  73   34  175 1
  74   35   36 1
  75   35  176 1
  76   35  177 1
  77   36   37 2
  78   36   40 1
  79   37   38 1
  80   37  178 1
  81   38   39 1
  82   38  179 1
  83   39   40 2
  84   39  180 1
  85   41   42 2
  86   41   44 1
  87   41   49 am
  88   43   44 1
  89   43  181 1
  90   44   45 1
  91   44  182 1
  92   45   46 1
  93   45  183 1
  94   45  184 1
  95   46  185 1
  96   47   48 2
  97   47   50 1
  98   47   56 am
  99   49   50 1
 100   49  186 1
 101   50   51 1
 102   50  187 1
 103   51   52 1
 104   51   53 1
 105   51  188 1
 106   52  189 1
 107   52  190 1
 108   52  191 1
 109   53  192 1
 110   54   55 2
 111   54   57 1
 112   54   67 am
 113   56   57 1
 114   56  193 1
 115   57   58 1
 116   57  194 1
 117   58   59 1
 118   58  195 1
 119   58  196 1
 120   59   60 1
 121   59  197 1
 122   59  198 1
 123   60   61 1
 124   60  199 1
 125   60  200 1
 126   61   62 1
 127   61  201 1
 128   62   63 2
 129   62   64 1
 130   63  202 1
 131   64  203 1
 132   64  204 1
 133   65   66 2
 134   65   68 1
 135   65   75 am
 136   67   68 1
 137   67  205 1
 138   68   69 1
 139   68  206 1
 140   69   70 1
 141   69  207 1
 142   69  208 1
 143   70   71 2
 144   70   72 am
 145   72  209 1
 146   72  210 1
 147   73   74 2
 148   73   76 1
 149   73   87 am
 150   75   76 1
 151   75  211 1
 152   76   77 1
 153   76  212 1
 154   77   78 1
 155   77  213 1
 156   77  214 1
 157   78   79 ar
 158   78   84 ar
 159   79   80 ar
 160   79  215 1
 161   80   81 ar
 162   80  216 1
 163   81   82 1
 164   81   83 ar
 165   82  217 1
 166   83   84 ar
 167   83  218 1
 168   84  219 1
 169   85   86 2
 170   85   88 1
 171   85   95 am
 172   87   88 1
 173   87  220 1
 174   88   89 1
 175   88  221 1
 176   89   90 1
 177   89   92 1
 178   89  222 1
 179   90   91 1
 180   90  223 1
 181   90  224 1
 182   91  225 1
 183   91  226 1
 184   91  227 1
 185   92  228 1
 186   92  229 1
 187   92  230 1
 188   93   94 2
 189   93   96 1
 190   93  105 am
 191   95   96 1
 192   95  231 1
 193   96   97 1
 194   96  232 1
 195   97   98 1
 196   97  233 1
 197   97  234 1
 198   98   99 2
 199   98  102 1
 200   99  100 1
 201   99  235 1
 202  100  101 1
 203  100  236 1
 204  101  102 2
 205  101  237 1
 206  103  104 2
 207  103  106 1
 208  103  113 am
 209  105  106 1
 210  105  238 1
 211  106  107 1
 212  106  239 1
 213  107  108 1
 214  107  240 1
 215  107  241 1
 216  108  109 1
 217  108  242 1
 218  108  243 1
 219  109  110 1
 220  110  244 1
 221  110  245 1
 222  110  246 1
 223  111  112 2
 224  111  114 1
 225  111  121 1
 226  113  114 1
 227  113  247 1
 228  114  115 1
 229  114  248 1
 230  115  116 1
 231  115  249 1
 232  115  250 1
 233  116  117 2
 234  116  120 1
 235  117  118 1
 236  117  251 1
 237  118  119 1
 238  118  252 1
 239  119  120 2
 240  119  253 1
 241  121  254 1
 242  122  123 2
 243  122  138 1
 244  124  125 1
 245  124  255 1
 246  124  256 1
 247  124  257 1
 248  125  126 1
 249  125  258 1
 250  125  259 1
 251  126  127 1
 252  126  260 1
 253  126  261 1
 254  127  128 1
 255  127  262 1
 256  127  263 1
 257  128  129 1
 258  128  264 1
 259  128  265 1
 260  129  130 1
 261  129  266 1
 262  129  267 1
 263  130  131 1
 264  130  268 1
 265  130  269 1
 266  131  132 1
 267  131  270 1
 268  131  271 1
 269  132  133 1
 270  132  272 1
 271  132  273 1
 272  133  134 1
 273  133  274 1
 274  133  275 1
 275  134  135 1
 276  134  276 1
 277  134  277 1
 278  135  136 1
 279  135  278 1
 280  135  279 1
 281  136  137 1
 282  136  280 1
 283  136  281 1
 284  137  138 1
 285  137  282 1
 286  137  283 1
 287  138  284 1
 288  138  285 1

#	End of record

