#	Name: ASD03240867
#	Creating user name:	WinNT
#	Creation time:	15. 06. 2019 20:35

#	Modifying user name:	WinNT
#	Modification time:	15. 06. 2019 20:35

#	Program:	/corina/corina34_cracker 3.40 0067  02.08.2006

@<TRIPOS>MOLECULE
ASD03240867
  81   87    0    0    0
SMALL
NO_CHARGES


@<TRIPOS>ATOM
   1 N1            -0.0178     1.4642     0.0101 N.3     
   2 C2             0.0021    -0.0041     0.0020 C.3     
   3 C3             0.7039    -0.5130     1.2631 C.3     
   4 C4             2.1331     0.0352     1.3025 C.3     
   5 C5             2.0858     1.5651     1.2611 C.3     
   6 C6             1.3439     2.0138     0.0000 C.3     
   7 C7             2.8099    -0.4136     2.5720 C.2     
   8 O8             2.2093    -1.1040     3.3679 O.2     
   9 N9             4.0825    -0.0476     2.8228 N.am    
  10 C10            4.7405    -0.4839     4.0569 C.3     
  11 C11            6.2560    -0.5022     3.8479 C.3     
  12 C12            6.9431    -0.9578     5.1367 C.3     
  13 C13            6.5962     0.0104     6.2694 C.3     
  14 C14            5.0806     0.0287     6.4785 C.3     
  15 C15            4.3935     0.4844     5.1896 C.3     
  16 O16            7.2379    -0.4152     7.4732 O.3     
  17 C17           -0.8045     1.9863    -1.1153 C.3     
  18 C18           -1.0092     3.4690    -0.9402 C.ar    
  19 C19           -0.0910     4.3584    -1.4693 C.ar    
  20 C20           -0.2730     5.7171    -1.3127 C.ar    
  21 C21           -1.3857     6.1934    -0.6192 C.ar    
  22 C22           -2.3079     5.2916    -0.0881 C.ar    
  23 C23           -2.1175     3.9353    -0.2560 C.ar    
  24 N24            0.4393    10.5598     0.0407 N.pl3   
  25 C25            0.2754    11.9090     0.2021 C.2     
  26 N26           -0.9402    12.4842     0.2034 N.2     
  27 C27           -2.0371    11.7882     0.0504 C.2     
  28 C28           -1.9408    10.3409    -0.1274 C.ar    
  29 C29           -3.0778     9.5430    -0.2948 C.ar    
  30 C30           -2.8945     8.1739    -0.4578 C.ar    
  31 C31           -1.5868     7.6504    -0.4471 C.ar    
  32 N32           -0.5339     8.4375    -0.2856 N.ar    
  33 C33           -0.6625     9.7435    -0.1283 C.ar    
  34 C34            1.5451    12.4517     0.3463 C.2     
  35 C35            2.4613    11.4104     0.2685 C.2     
  36 N36            1.8112    10.2850     0.0929 N.2     
  37 C37           -4.0608     7.2767    -0.6389 C.ar    
  38 C38           -5.1405     7.3466     0.2401 C.ar    
  39 C39           -6.2236     6.5093     0.0663 C.ar    
  40 C40           -6.2393     5.6020    -0.9777 C.ar    
  41 C41           -5.1705     5.5278    -1.8529 C.ar    
  42 C42           -4.0845     6.3641    -1.6923 C.ar    
  43 C43            3.9580    11.5504     0.3746 C.3     
  44 H44           -1.0204    -0.3810    -0.0218 H       
  45 H45            0.5390    -0.3552    -0.8792 H       
  46 H46            0.1597    -0.1738     2.1445 H       
  47 H47            0.7324    -1.6025     1.2493 H       
  48 H48            2.6892    -0.3354     0.4414 H       
  49 H49            1.5633     1.9370     2.1425 H       
  50 H50            3.1015     1.9603     1.2458 H       
  51 H51            1.8745     1.6533    -0.8812 H       
  52 H52            1.2960     3.1025    -0.0252 H       
  53 H53            4.5628     0.5046     2.1862 H       
  54 H54            4.3974    -1.4853     4.3171 H       
  55 H55            6.5032    -1.1920     3.0409 H       
  56 H56            6.5990     0.4992     3.5877 H       
  57 H57            6.6001    -1.9592     5.3969 H       
  58 H58            8.0228    -0.9709     4.9878 H       
  59 H59            6.9392     1.0118     6.0093 H       
  60 H60            4.7376    -0.9727     6.7386 H       
  61 H61            4.8335     0.7185     7.2854 H       
  62 H62            4.7365     1.4857     4.9294 H       
  63 H63            3.3138     0.4974     5.3385 H       
  64 H64            7.0618     0.1537     8.2351 H       
  65 H65           -0.2719     1.8007    -2.0480 H       
  66 H66           -1.7729     1.4868    -1.1444 H       
  67 H67            0.7703     3.9884    -2.0056 H       
  68 H68            0.4446     6.4104    -1.7258 H       
  69 H69           -3.1712     5.6543     0.4501 H       
  70 H70           -2.8330     3.2363     0.1512 H       
  71 H71           -3.0005    12.2763     0.0559 H       
  72 H72           -4.0669     9.9767    -0.2977 H       
  73 H73            1.7786    13.4960     0.4923 H       
  74 H74           -5.1291     8.0544     1.0558 H       
  75 H75           -7.0605     6.5623     0.7469 H       
  76 H76           -7.0891     4.9487    -1.1099 H       
  77 H77           -5.1879     4.8170    -2.6658 H       
  78 H78           -3.2527     6.3084    -2.3788 H       
  79 H79            4.2588    11.4552     1.4180 H       
  80 H80            4.4387    10.7695    -0.2147 H       
  81 H81            4.2592    12.5276    -0.0027 H       
@<TRIPOS>BOND
   1    1    2 1
   2    1    6 1
   3    1   17 1
   4    2    3 1
   5    2   44 1
   6    2   45 1
   7    3    4 1
   8    3   46 1
   9    3   47 1
  10    4    5 1
  11    4    7 1
  12    4   48 1
  13    5    6 1
  14    5   49 1
  15    5   50 1
  16    6   51 1
  17    6   52 1
  18    7    8 2
  19    7    9 am
  20    9   10 1
  21    9   53 1
  22   10   11 1
  23   10   15 1
  24   10   54 1
  25   11   12 1
  26   11   55 1
  27   11   56 1
  28   12   13 1
  29   12   57 1
  30   12   58 1
  31   13   14 1
  32   13   16 1
  33   13   59 1
  34   14   15 1
  35   14   60 1
  36   14   61 1
  37   15   62 1
  38   15   63 1
  39   16   64 1
  40   17   18 1
  41   17   65 1
  42   17   66 1
  43   18   19 ar
  44   18   23 ar
  45   19   20 ar
  46   19   67 1
  47   20   21 ar
  48   20   68 1
  49   21   22 ar
  50   21   31 1
  51   22   23 ar
  52   22   69 1
  53   23   70 1
  54   24   25 1
  55   24   33 1
  56   24   36 1
  57   25   26 1
  58   25   34 2
  59   26   27 2
  60   27   28 1
  61   27   71 1
  62   28   29 ar
  63   28   33 ar
  64   29   30 ar
  65   29   72 1
  66   30   31 ar
  67   30   37 1
  68   31   32 ar
  69   32   33 ar
  70   34   35 1
  71   34   73 1
  72   35   36 2
  73   35   43 1
  74   37   38 ar
  75   37   42 ar
  76   38   39 ar
  77   38   74 1
  78   39   40 ar
  79   39   75 1
  80   40   41 ar
  81   40   76 1
  82   41   42 ar
  83   41   77 1
  84   42   78 1
  85   43   79 1
  86   43   80 1
  87   43   81 1

#	End of record

