#	Name: ASD01918197
#	Creating user name:	WinNT
#	Creation time:	15. 06. 2019 20:11

#	Modifying user name:	WinNT
#	Modification time:	15. 06. 2019 20:11

#	Program:	/corina/corina34_cracker 3.40 0067  02.08.2006

@<TRIPOS>MOLECULE
ASD01918197
  41   44    0    0    0
SMALL
NO_CHARGES


@<TRIPOS>ATOM
   1 N1            -0.0158     1.3120     0.0093 N.ar    
   2 C2             0.0021    -0.0041     0.0020 C.ar    
   3 C3             1.1991    -0.6993    -0.0131 C.ar    
   4 C4             2.3954     0.0035    -0.0208 C.ar    
   5 C5             2.3495     1.3868    -0.0129 C.ar    
   6 C6             1.1069     2.0237     0.0024 C.ar    
   7 N7             1.0445     3.3898     0.0098 N.2     
   8 N8            -0.1008     3.9831     0.0235 N.2     
   9 C9            -0.1630     5.3454     0.0310 C.ar    
  10 C10           -1.4616     7.3705     0.0590 C.ar    
  11 C11           -1.4043     5.9906     0.0516 C.ar    
  12 C12            1.0146     6.1013     0.0238 C.ar    
  13 C13            0.9498     7.4770     0.0313 C.ar    
  14 C14           -0.2833     8.1178     0.0460 C.ar    
  15 O15           -2.6662     8.0008     0.0791 O.3     
  16 C16           -3.8312     7.1734     0.0916 C.3     
  17 N17           -0.3434     9.5159     0.0540 N.am    
  18 C18           -0.3919    10.2820    -1.0508 C.2     
  19 C19           -0.4476    11.7002    -0.6384 C.ar    
  20 C20           -0.3660    10.2704     1.1675 C.2     
  21 C21           -0.4719    12.8904     1.4671 C.ar    
  22 C22           -0.4278    11.6930     0.7713 C.ar    
  23 C23           -0.5089    12.9048    -1.3204 C.ar    
  24 C24           -0.5503    14.0949    -0.6109 C.ar    
  25 C25           -0.5304    14.0879     0.7712 C.ar    
  26 O26           -0.3379     9.8527     2.3075 O.2     
  27 O27           -0.3898     9.8762    -2.1954 O.2     
  28 H28           -0.9302    -0.5492     0.0084 H       
  29 H29            1.2017    -1.7793    -0.0186 H       
  30 H30            3.3415    -0.5173    -0.0323 H       
  31 H31            3.2615     1.9652    -0.0182 H       
  32 H32           -2.3155     5.4110     0.0614 H       
  33 H33            1.9742     5.6060     0.0127 H       
  34 H34            1.8594     8.0592     0.0261 H       
  35 H35           -4.7223     7.8008     0.1072 H       
  36 H36           -3.8425     6.5483    -0.8013 H       
  37 H37           -3.8173     6.5398     0.9784 H       
  38 H38           -0.4637    12.8907     2.5471 H       
  39 H39           -0.5240    12.9164    -2.4003 H       
  40 H40           -0.5981    15.0343    -1.1417 H       
  41 H41           -0.5648    15.0217     1.3128 H       
@<TRIPOS>BOND
   1    1    2 ar
   2    1    6 ar
   3    2    3 ar
   4    2   28 1
   5    3    4 ar
   6    3   29 1
   7    4    5 ar
   8    4   30 1
   9    5    6 ar
  10    5   31 1
  11    6    7 1
  12    7    8 2
  13    8    9 1
  14    9   12 ar
  15    9   11 ar
  16   10   11 ar
  17   10   14 ar
  18   10   15 1
  19   11   32 1
  20   12   13 ar
  21   12   33 1
  22   13   14 ar
  23   13   34 1
  24   14   17 1
  25   15   16 1
  26   16   35 1
  27   16   36 1
  28   16   37 1
  29   17   18 am
  30   17   20 am
  31   18   19 1
  32   18   27 2
  33   19   23 ar
  34   19   22 ar
  35   20   26 2
  36   20   22 1
  37   21   22 ar
  38   21   25 ar
  39   21   38 1
  40   23   24 ar
  41   23   39 1
  42   24   25 ar
  43   24   40 1
  44   25   41 1

#	End of record

