#	Name: ASD07930629
#	Creating user name:	WinNT
#	Creation time:	15. 06. 2019 21:12

#	Modifying user name:	WinNT
#	Modification time:	15. 06. 2019 21:12

#	Program:	/corina/corina34_cracker 3.40 0067  02.08.2006

@<TRIPOS>MOLECULE
ASD07930629
  45   47    0    0    0
SMALL
NO_CHARGES


@<TRIPOS>ATOM
   1 C1            -0.0343     1.4581     0.0424 C.3     
   2 N2             0.7953    -0.4133    -2.1302 N.2     
   3 N3            -0.8904    -1.7835    -1.2685 N.pl3   
   4 C4            -0.9150    -2.8271    -0.2383 C.3     
   5 C5            -1.2300    -2.1885     1.1215 C.3     
   6 S6             0.0062    -0.8913     1.4434 S.o2    
   7 N7            -0.0141    -0.0067     0.0315 N.am    
   8 C8            -0.0113    -0.7260    -1.1552 C.2     
   9 C9             0.4501    -3.5153    -0.1756 C.3     
  10 C10           -1.9764    -3.8422    -0.5755 C.ar    
  11 C11           -2.8068    -3.6380    -1.6597 C.ar    
  12 C12           -3.7850    -4.5740    -1.9701 C.ar    
  13 C13           -3.9256    -5.7134    -1.1890 C.ar    
  14 C14           -3.0928    -5.9137    -0.1053 C.ar    
  15 C15           -2.1147    -4.9821     0.1989 C.ar    
  16 O16           -0.4576     0.0117     2.4377 O.2     
  17 O17            1.3141    -1.4440     1.5003 O.2     
  18 N18           -4.6279    -4.3688    -3.0682 N.am    
  19 C19           -5.0478    -5.4192    -3.8009 C.2     
  20 O20           -4.6179    -6.5338    -3.5687 O.2     
  21 C21           -6.0230    -5.2189    -4.8782 C.2     
  22 C22           -6.5378    -6.1785    -5.6989 C.2     
  23 F23           -1.3013    -5.1800     1.2593 F       
  24 N24           -7.3881    -5.5760    -6.5363 N.2     
  25 C25           -7.4167    -4.2983    -6.2667 C.2     
  26 O26           -6.5906    -4.0466    -5.2464 O.3     
  27 C27           -6.2086    -7.6488    -5.6676 C.3     
  28 F28           -7.0912    -8.3061    -4.8038 F       
  29 F29           -6.3324    -8.1819    -6.9551 F       
  30 F30           -4.8964    -7.8233    -5.2149 F       
  31 H31            0.9883     1.8357     0.0393 H       
  32 H32           -0.5582     1.8209    -0.8419 H       
  33 H33           -0.5479     1.8078     0.9380 H       
  34 H34            1.4070     0.3331    -2.0332 H       
  35 H35           -1.4883    -1.8387    -2.0303 H       
  36 H36           -2.2269    -1.7484     1.0987 H       
  37 H37           -1.1799    -2.9460     1.9036 H       
  38 H38            1.2166    -2.7804     0.0704 H       
  39 H39            0.4311    -4.2908     0.5902 H       
  40 H40            0.6749    -3.9651    -1.1426 H       
  41 H41           -2.6960    -2.7510    -2.2658 H       
  42 H42           -4.6858    -6.4422    -1.4284 H       
  43 H43           -3.2018    -6.7997     0.5025 H       
  44 H44           -4.9099    -3.4706    -3.3020 H       
  45 H45           -8.0156    -3.5628    -6.7833 H       
@<TRIPOS>BOND
   1    1    7 1
   2    1   31 1
   3    1   32 1
   4    1   33 1
   5    2    8 2
   6    2   34 1
   7    3    4 1
   8    3    8 1
   9    3   35 1
  10    4    5 1
  11    4    9 1
  12    4   10 1
  13    5    6 1
  14    5   36 1
  15    5   37 1
  16    6    7 am
  17    6   16 2
  18    6   17 2
  19    7    8 1
  20    9   38 1
  21    9   39 1
  22    9   40 1
  23   10   11 ar
  24   10   15 ar
  25   11   12 ar
  26   11   41 1
  27   12   13 ar
  28   12   18 1
  29   13   14 ar
  30   13   42 1
  31   14   15 ar
  32   14   43 1
  33   15   23 1
  34   18   19 am
  35   18   44 1
  36   19   20 2
  37   19   21 1
  38   21   22 2
  39   21   26 1
  40   22   24 1
  41   22   27 1
  42   24   25 2
  43   25   26 1
  44   25   45 1
  45   27   28 1
  46   27   29 1
  47   27   30 1

#	End of record

