#	Name: ASD07931908
#	Creating user name:	WinNT
#	Creation time:	15. 06. 2019 21:13

#	Modifying user name:	WinNT
#	Modification time:	15. 06. 2019 21:13

#	Program:	/corina/corina34_cracker 3.40 0067  02.08.2006

@<TRIPOS>MOLECULE
ASD07931908
  33   34    0    0    0
SMALL
NO_CHARGES


@<TRIPOS>ATOM
   1 C1            -0.0173     1.4248     0.0099 C.3     
   2 O2             0.0021    -0.0041     0.0020 O.3     
   3 O3             2.0651     1.6276    -1.2502 O.3     
   4 C4             1.4181     1.9544    -0.0010 C.3     
   5 C5             1.4221     3.4982     0.0536 C.3     
   6 C6             2.5981     3.9032    -0.8630 C.3     
   7 C7             3.1655     2.5562    -1.3630 C.3     
   8 C8             3.6076     2.6737    -2.7989 C.ar    
   9 C9             4.9520     2.7832    -3.1014 C.ar    
  10 C10            5.3576     2.8911    -4.4185 C.ar    
  11 C11            4.4188     2.8890    -5.4331 C.ar    
  12 C12            3.0744     2.7786    -5.1307 C.ar    
  13 C13            2.6692     2.6664    -3.8138 C.ar    
  14 C14            4.8608     3.0076    -6.8689 C.3     
  15 F15            5.0877     1.7309    -7.3940 F       
  16 F16            3.8633     3.6472    -7.6127 F       
  17 F17            6.0418     3.7549    -6.9331 F       
  18 C18            2.0964     4.7433    -2.0392 C.3     
  19 H19           -0.5445     1.7859    -0.8732 H       
  20 H20           -0.5275     1.7763     0.9067 H       
  21 H21           -0.8759    -0.4094     0.0082 H       
  22 H22            1.9813     1.5436     0.8369 H       
  23 H23            0.4833     3.8964    -0.3312 H       
  24 H24            1.5956     3.8438     1.0727 H       
  25 H25            3.3530     4.4491    -0.2971 H       
  26 H26            3.9968     2.2377    -0.7340 H       
  27 H27            5.6855     2.7848    -2.3087 H       
  28 H28            6.4079     2.9773    -4.6548 H       
  29 H29            2.3409     2.7774    -5.9234 H       
  30 H30            1.6191     2.5765    -3.5778 H       
  31 H31            1.6376     5.6577    -1.6631 H       
  32 H32            2.9347     4.9975    -2.6878 H       
  33 H33            1.3594     4.1730    -2.6047 H       
@<TRIPOS>BOND
   1    1    2 1
   2    1    4 1
   3    1   19 1
   4    1   20 1
   5    2   21 1
   6    3    4 1
   7    3    7 1
   8    4    5 1
   9    4   22 1
  10    5    6 1
  11    5   23 1
  12    5   24 1
  13    6    7 1
  14    6   18 1
  15    6   25 1
  16    7    8 1
  17    7   26 1
  18    8    9 ar
  19    8   13 ar
  20    9   10 ar
  21    9   27 1
  22   10   11 ar
  23   10   28 1
  24   11   12 ar
  25   11   14 1
  26   12   13 ar
  27   12   29 1
  28   13   30 1
  29   14   15 1
  30   14   16 1
  31   14   17 1
  32   18   31 1
  33   18   32 1
  34   18   33 1

#	End of record

