#	Name: ASD01813807
#	Creating user name:	WinNT
#	Creation time:	15. 06. 2019 19:31

#	Modifying user name:	WinNT
#	Modification time:	15. 06. 2019 19:31

#	Program:	/corina/corina34_cracker 3.40 0067  02.08.2006

@<TRIPOS>MOLECULE
ASD01813807
  50   53    0    0    0
SMALL
NO_CHARGES


@<TRIPOS>ATOM
   1 C1            -1.2228    -0.9460     1.0466 C.2     
   2 C2            -0.4830    -2.1311     0.9368 C.2     
   3 C3             0.8393    -2.0691     0.6070 C.2     
   4 C4             1.4371    -0.8177     0.3831 C.2     
   5 N5             0.6909     0.3237     0.4976 N.am    
   6 C6            -0.6299     0.2493     0.8274 C.2     
   7 C7             2.7959    -0.7512     0.0441 C.2     
   8 C8             3.3865     0.4594    -0.1751 C.2     
   9 C9             2.6160     1.6310    -0.0570 C.2     
  10 C10            1.2520     1.5312     0.2857 C.2     
  11 O11            0.5767     2.5413     0.3898 O.2     
  12 C12            3.2259     2.9425    -0.2866 C.2     
  13 O13            2.4818     4.0619    -0.1718 O.3     
  14 O14            4.4035     3.0225    -0.5809 O.2     
  15 C15            3.6047    -2.0169    -0.0776 C.3     
  16 N16            3.6356    -2.4450    -1.4825 N.3     
  17 C17            4.6024    -3.5333    -1.6801 C.3     
  18 C18            4.5056    -4.0571    -3.0851 C.2     
  19 N19            3.4533    -3.8192    -3.8750 N.am    
  20 C20            2.3181    -3.0003    -3.4595 C.3     
  21 C21            2.2995    -2.8645    -1.9357 C.3     
  22 O22            5.4205    -4.7234    -3.5211 O.2     
  23 C23            3.4396    -4.3795    -5.1571 C.ar    
  24 C24            2.8959    -5.6408    -5.3591 C.ar    
  25 C25            2.8840    -6.1915    -6.6271 C.ar    
  26 C26            3.4137    -5.4866    -7.6936 C.ar    
  27 C27            3.9561    -4.2303    -7.4944 C.ar    
  28 C28            3.9647    -3.6724    -6.2311 C.ar    
  29 Cl29           2.2046    -7.7687    -6.8815 Cl      
  30 C30            6.0172    -3.0072    -1.4306 C.3     
  31 H31           -2.2711    -0.9878     1.3030 H       
  32 H32           -0.9559    -3.0861     1.1122 H       
  33 H33            1.4217    -2.9743     0.5192 H       
  34 H34           -1.2096     1.1563     0.9151 H       
  35 H35            4.4330     0.5176    -0.4358 H       
  36 H36            2.9284     4.9043    -0.3328 H       
  37 H37            4.6217    -1.8330     0.2686 H       
  38 H38            3.1497    -2.7988     0.5305 H       
  39 H39            4.3886    -4.3391    -0.9780 H       
  40 H40            2.4016    -2.0112    -3.9097 H       
  41 H41            1.3924    -3.4701    -3.7920 H       
  42 H42            2.0454    -3.8244    -1.4862 H       
  43 H43            1.5630    -2.1156    -1.6444 H       
  44 H44            2.4831    -6.1913    -4.5266 H       
  45 H45            3.4038    -5.9187    -8.6834 H       
  46 H46            4.3691    -3.6827    -8.3287 H       
  47 H47            4.3883    -2.6910    -6.0767 H       
  48 H48            6.0916    -2.6352    -0.4087 H       
  49 H49            6.7358    -3.8137    -1.5769 H       
  50 H50            6.2323    -2.1979    -2.1284 H       
@<TRIPOS>BOND
   1    1    2 1
   2    1    6 2
   3    1   31 1
   4    2    3 2
   5    2   32 1
   6    3    4 1
   7    3   33 1
   8    4    5 1
   9    4    7 2
  10    5    6 1
  11    5   10 am
  12    6   34 1
  13    7    8 1
  14    7   15 1
  15    8    9 2
  16    8   35 1
  17    9   10 1
  18    9   12 1
  19   10   11 2
  20   12   13 1
  21   12   14 2
  22   13   36 1
  23   15   16 1
  24   15   37 1
  25   15   38 1
  26   16   17 1
  27   16   21 1
  28   17   18 1
  29   17   30 1
  30   17   39 1
  31   18   19 am
  32   18   22 2
  33   19   20 1
  34   19   23 1
  35   20   21 1
  36   20   40 1
  37   20   41 1
  38   21   42 1
  39   21   43 1
  40   23   24 ar
  41   23   28 ar
  42   24   25 ar
  43   24   44 1
  44   25   26 ar
  45   25   29 1
  46   26   27 ar
  47   26   45 1
  48   27   28 ar
  49   27   46 1
  50   28   47 1
  51   30   48 1
  52   30   49 1
  53   30   50 1

#	End of record

