#	Name: ASD01814573
#	Creating user name:	WinNT
#	Creation time:	15. 06. 2019 19:32

#	Modifying user name:	WinNT
#	Modification time:	15. 06. 2019 19:32

#	Program:	/corina/corina34_cracker 3.40 0067  02.08.2006

@<TRIPOS>MOLECULE
ASD01814573
  42   45    0    0    0
SMALL
NO_CHARGES


@<TRIPOS>ATOM
   1 C1            -0.0169     1.3969     0.0097 C.2     
   2 C2             0.0021    -0.0041     0.0020 C.2     
   3 C3             1.1990    -0.6593    -0.0129 C.2     
   4 C4             2.3918     0.0819    -0.0204 C.2     
   5 N5             2.3438     1.4492    -0.0122 N.am    
   6 C6             1.1425     2.0932     0.0024 C.2     
   7 C7             3.6232    -0.5901    -0.0357 C.2     
   8 C8             4.7880     0.1189    -0.0426 C.2     
   9 C9             4.7357     1.5270    -0.0347 C.2     
  10 C10            3.4812     2.1733    -0.0188 C.2     
  11 O11            3.4256     3.3912    -0.0118 O.2     
  12 C12            5.9326     2.2877    -0.0416 C.2     
  13 O13            7.0186     1.7208    -0.0545 O.co2   
  14 O14            5.8806     3.5116    -0.0346 O.co2   
  15 C15            3.6588    -2.0966    -0.0440 C.3     
  16 N16            3.7779    -2.5760    -1.4275 N.3     
  17 C17            5.0693    -2.1933    -2.0069 C.3     
  18 C18            5.2207    -2.7745    -3.3883 C.ar    
  19 C19            4.4319    -3.8150    -3.8300 C.ar    
  20 C20            3.3666    -4.4264    -2.9565 C.3     
  21 C21            3.6006    -4.0352    -1.4971 C.3     
  22 C22            6.1859    -2.2378    -4.2281 C.ar    
  23 C23            6.3616    -2.7407    -5.5010 C.ar    
  24 C24            5.5713    -3.7868    -5.9436 C.ar    
  25 C25            4.6096    -4.3216    -5.1085 C.ar    
  26 Cl26           5.7877    -4.4251    -7.5434 Cl      
  27 H27           -0.9604     1.9224     0.0170 H       
  28 H28           -0.9232    -0.5610     0.0082 H       
  29 H29            1.2287    -1.7388    -0.0187 H       
  30 H30            1.1162     3.1729     0.0087 H       
  31 H31            5.7391    -0.3926    -0.0537 H       
  32 H32            4.5145    -2.4431     0.5354 H       
  33 H33            2.7404    -2.4842     0.3970 H       
  34 H34            5.1296    -1.1066    -2.0652 H       
  35 H35            5.8730    -2.5640    -1.3707 H       
  36 H36            2.3877    -4.0678    -3.2749 H       
  37 H37            3.4007    -5.5118    -3.0501 H       
  38 H38            4.4967    -4.5312    -1.1242 H       
  39 H39            2.7394    -4.3285    -0.8968 H       
  40 H40            6.8032    -1.4213    -3.8836 H       
  41 H41            7.1141    -2.3185    -6.1506 H       
  42 H42            3.9928    -5.1385    -5.4532 H       
@<TRIPOS>BOND
   1    1    2 1
   2    1    6 2
   3    1   27 1
   4    2    3 2
   5    2   28 1
   6    3    4 1
   7    3   29 1
   8    4    5 1
   9    4    7 2
  10    5    6 1
  11    5   10 am
  12    6   30 1
  13    7    8 1
  14    7   15 1
  15    8    9 2
  16    8   31 1
  17    9   10 1
  18    9   12 1
  19   10   11 2
  20   12   13 ar
  21   12   14 ar
  22   15   16 1
  23   15   32 1
  24   15   33 1
  25   16   17 1
  26   16   21 1
  27   17   18 1
  28   17   34 1
  29   17   35 1
  30   18   19 ar
  31   18   22 ar
  32   19   20 1
  33   19   25 ar
  34   20   21 1
  35   20   36 1
  36   20   37 1
  37   21   38 1
  38   21   39 1
  39   22   23 ar
  40   22   40 1
  41   23   24 ar
  42   23   41 1
  43   24   25 ar
  44   24   26 1
  45   25   42 1

#	End of record

