#	Name: ASD00910004
#	Creating user name:	WinNT
#	Creation time:	15. 06. 2019 18:53

#	Modifying user name:	WinNT
#	Modification time:	15. 06. 2019 18:53

#	Program:	/corina/corina34_cracker 3.40 0067  02.08.2006

@<TRIPOS>MOLECULE
ASD00910004
  53   52    0    0    0
SMALL
NO_CHARGES


@<TRIPOS>ATOM
   1 N1            -0.0178     1.4648     0.0101 N.3     
   2 C2             0.0021    -0.0041     0.0020 C.3     
   3 C3            -1.4333    -0.5336     0.0129 C.3     
   4 C4            -1.4126    -2.0635     0.0045 C.3     
   5 C5            -2.8479    -2.5931     0.0153 C.3     
   6 C6            -2.8272    -4.1229     0.0069 C.3     
   7 C7            -4.2626    -4.6525     0.0178 C.3     
   8 C8            -4.2425    -6.1778     0.1351 C.3     
   9 C9            -5.6779    -6.7074     0.1460 C.3     
  10 C10           -5.6579    -8.2328     0.2633 C.3     
  11 C11           -7.0932    -8.7624     0.2742 C.3     
  12 C12           -7.0732   -10.2877     0.3915 C.3     
  13 C13           -8.5086   -10.8173     0.4024 C.3     
  14 N14           -8.4893   -12.2819     0.5151 N.3     
  15 N15           -2.1167    -4.6095     1.1970 N.3     
  16 C16           -2.1218    -4.6089    -1.2330 C.2     
  17 O17           -2.7604    -4.8995    -2.2166 O.2     
  18 O18           -0.7841    -4.7189    -1.2445 O.3     
  19 C19           -6.3693    -6.3111    -1.1331 C.2     
  20 C20           -6.4314    -6.1141     1.3381 C.3     
  21 O21           -5.8814    -6.7208    -2.3145 O.3     
  22 O22           -7.3628    -5.6244    -1.0951 O.2     
  23 H23            0.9191     1.8392     0.0032 H       
  24 H24           -0.5563     1.8234    -0.7642 H       
  25 H25            0.5123    -0.3556    -0.8948 H       
  26 H26            0.5293    -0.3651     0.8851 H       
  27 H27           -1.9435    -0.1821     0.9097 H       
  28 H28           -1.9605    -0.1726    -0.8702 H       
  29 H29           -0.9024    -2.4150    -0.8923 H       
  30 H30           -0.8854    -2.4246     0.8875 H       
  31 H31           -3.3581    -2.2415     0.9121 H       
  32 H32           -3.3751    -2.2320    -0.8677 H       
  33 H33           -4.7994    -4.2298     0.8670 H       
  34 H34           -4.7626    -4.3658    -0.9073 H       
  35 H35           -3.7057    -6.6006    -0.7141 H       
  36 H36           -3.7425    -6.4645     1.0602 H       
  37 H37           -5.1210    -8.6555    -0.5859 H       
  38 H38           -5.1578    -8.5195     1.1884 H       
  39 H39           -7.6301    -8.3397     1.1234 H       
  40 H40           -7.5933    -8.4757    -0.6509 H       
  41 H41           -6.5364   -10.7104    -0.4577 H       
  42 H42           -6.5731   -10.5744     1.3167 H       
  43 H43           -9.0454   -10.3946     1.2517 H       
  44 H44           -9.0086   -10.5306    -0.5227 H       
  45 H45           -9.4263   -12.6562     0.5243 H       
  46 H46           -7.9425   -12.6944    -0.2258 H       
  47 H47           -1.1483    -4.3268     1.1808 H       
  48 H48           -2.5706    -4.2968     2.0422 H       
  49 H49           -0.3767    -5.0350    -2.0626 H       
  50 H50           -6.4457    -5.0274     1.2545 H       
  51 H51           -7.4540    -6.4914     1.3458 H       
  52 H52           -5.9314    -6.4008     2.2632 H       
  53 H53           -6.3591    -6.4413    -3.1075 H       
@<TRIPOS>BOND
   1    1    2 1
   2    1   23 1
   3    1   24 1
   4    2    3 1
   5    2   25 1
   6    2   26 1
   7    3    4 1
   8    3   27 1
   9    3   28 1
  10    4    5 1
  11    4   29 1
  12    4   30 1
  13    5    6 1
  14    5   31 1
  15    5   32 1
  16    6    7 1
  17    6   15 1
  18    6   16 1
  19    7    8 1
  20    7   33 1
  21    7   34 1
  22    8    9 1
  23    8   35 1
  24    8   36 1
  25    9   10 1
  26    9   19 1
  27    9   20 1
  28   10   11 1
  29   10   37 1
  30   10   38 1
  31   11   12 1
  32   11   39 1
  33   11   40 1
  34   12   13 1
  35   12   41 1
  36   12   42 1
  37   13   14 1
  38   13   43 1
  39   13   44 1
  40   14   45 1
  41   14   46 1
  42   15   47 1
  43   15   48 1
  44   16   17 2
  45   16   18 1
  46   18   49 1
  47   19   21 1
  48   19   22 2
  49   20   50 1
  50   20   51 1
  51   20   52 1
  52   21   53 1

#	End of record

