#	Name: ASD00191052
#	Creating user name:	WinNT
#	Creation time:	15. 06. 2019 18:33

#	Modifying user name:	WinNT
#	Modification time:	15. 06. 2019 18:33

#	Program:	/corina/corina34_cracker 3.40 0067  02.08.2006

@<TRIPOS>MOLECULE
ASD00191052
  52   55    0    0    0
SMALL
NO_CHARGES


@<TRIPOS>ATOM
   1 C1            -0.0325     1.4022     0.4014 C.ar    
   2 C2            -0.0149    -0.0124     0.4150 C.ar    
   3 N3            -1.1508    -0.6966     0.2301 N.ar    
   4 C4            -2.3000    -0.0804     0.0333 C.ar    
   5 C5            -2.3896     1.3147     0.0079 C.ar    
   6 C6            -1.2617     2.0731     0.1858 C.ar    
   7 C7             1.1598     2.1126     0.5944 C.ar    
   8 C8             2.3247     1.4336     0.7934 C.ar    
   9 C9             2.3455     0.0416     0.8070 C.ar    
  10 C10            1.2045    -0.6787     0.6235 C.ar    
  11 C11           -3.3613    -2.2261    -0.2679 C.ar    
  12 C12           -4.3727    -3.0318     0.2395 C.ar    
  13 C13           -4.2851    -4.4048     0.1200 C.ar    
  14 C14           -3.1919    -4.9778    -0.5037 C.ar    
  15 C15           -2.1832    -4.1786    -1.0100 C.ar    
  16 C16           -2.2648    -2.8049    -0.8942 C.ar    
  17 N17           -1.3237     3.4631     0.1648 N.am    
  18 C18           -2.2442     4.0851    -0.5982 C.2     
  19 C19           -2.2388     5.5879    -0.7106 C.3     
  20 O20           -3.0769     3.4355    -1.1943 O.2     
  21 N21           -3.4495    -0.8359    -0.1537 N.pl3   
  22 C22           -3.3776     6.0348    -1.6295 C.3     
  23 C23           -3.3720     7.5605    -1.7436 C.3     
  24 C24           -3.5646     8.1764    -0.3563 C.3     
  25 C25           -2.4258     7.7295     0.5626 C.3     
  26 C26           -2.4313     6.2038     0.6767 C.3     
  27 C27           -3.0993    -6.4765    -0.6314 C.3     
  28 H28           -3.3438     1.7934    -0.1556 H       
  29 H29            1.1557     3.1926     0.5851 H       
  30 H30            3.2431     1.9822     0.9421 H       
  31 H31            3.2806    -0.4748     0.9662 H       
  32 H32            1.2369    -1.7582     0.6371 H       
  33 H33           -5.2264    -2.5850     0.7273 H       
  34 H34           -5.0711    -5.0319     0.5143 H       
  35 H35           -1.3307    -4.6293    -1.4961 H       
  36 H36           -1.4769    -2.1813    -1.2901 H       
  37 H37           -0.7045     3.9843     0.6994 H       
  38 H38           -1.2864     5.9178    -1.1255 H       
  39 H39           -4.3140    -0.3989    -0.2052 H       
  40 H40           -3.2404     5.5960    -2.6178 H       
  41 H41           -4.3300     5.7049    -1.2145 H       
  42 H42           -2.4196     7.8904    -2.1586 H       
  43 H43           -4.1833     7.8788    -2.3982 H       
  44 H44           -3.5606     9.2633    -0.4376 H       
  45 H45           -4.5170     7.8465     0.0587 H       
  46 H46           -1.4734     8.0594     0.1476 H       
  47 H47           -2.5629     8.1683     1.5509 H       
  48 H48           -3.3837     5.8740     1.0917 H       
  49 H49           -1.6200     5.8855     1.3313 H       
  50 H50           -3.5671    -6.7913    -1.5642 H       
  51 H51           -2.0515    -6.7772    -0.6309 H       
  52 H52           -3.6122    -6.9452     0.2085 H       
@<TRIPOS>BOND
   1    1    2 ar
   2    1    7 ar
   3    1    6 ar
   4    2    3 ar
   5    2   10 ar
   6    3    4 ar
   7    4    5 ar
   8    4   21 1
   9    5    6 ar
  10    5   28 1
  11    6   17 1
  12    7    8 ar
  13    7   29 1
  14    8    9 ar
  15    8   30 1
  16    9   10 ar
  17    9   31 1
  18   10   32 1
  19   11   12 ar
  20   11   16 ar
  21   11   21 1
  22   12   13 ar
  23   12   33 1
  24   13   14 ar
  25   13   34 1
  26   14   15 ar
  27   14   27 1
  28   15   16 ar
  29   15   35 1
  30   16   36 1
  31   17   18 am
  32   17   37 1
  33   18   19 1
  34   18   20 2
  35   19   22 1
  36   19   26 1
  37   19   38 1
  38   21   39 1
  39   22   23 1
  40   22   40 1
  41   22   41 1
  42   23   24 1
  43   23   42 1
  44   23   43 1
  45   24   25 1
  46   24   44 1
  47   24   45 1
  48   25   26 1
  49   25   46 1
  50   25   47 1
  51   26   48 1
  52   26   49 1
  53   27   50 1
  54   27   51 1
  55   27   52 1

#	End of record

