#	Name: ASD03731874
#	Creating user name:	WinNT
#	Creation time:	15. 06. 2019 20:46

#	Modifying user name:	WinNT
#	Modification time:	15. 06. 2019 20:46

#	Program:	/corina/corina34_cracker 3.40 0067  02.08.2006

@<TRIPOS>MOLECULE
ASD03731874
  37   39    0    0    0
SMALL
NO_CHARGES


@<TRIPOS>ATOM
   1 C1             0.1803     1.4522     0.7803 C.2     
   2 C2             0.1644    -0.0166     0.6513 C.ar    
   3 C3             0.3012    -0.8229     1.7877 C.ar    
   4 C4             0.2856    -2.1972     1.6611 C.ar    
   5 C5             0.1346    -2.7792     0.4093 C.ar    
   6 C6            -0.0016    -1.9806    -0.7224 C.ar    
   7 C7             0.0069    -0.6084    -0.6055 C.ar    
   8 O8             0.3124     1.9649     1.8750 O.2     
   9 N9             0.0540     2.2264    -0.3157 N.am    
  10 F10            0.4485    -0.2569     3.0055 F       
  11 O11            0.1203    -4.1309     0.2890 O.3     
  12 C12            1.2923    -4.7589     0.0111 C.ar    
  13 C13            1.3418    -6.1565    -0.0559 C.ar    
  14 C14            2.5496    -6.7916    -0.3418 C.ar    
  15 C15            3.6885    -6.0405    -0.5568 C.ar    
  16 C16            3.6353    -4.6584    -0.4891 C.ar    
  17 C17            2.4415    -4.0186    -0.2125 C.ar    
  18 N18            0.0068    -8.0436     0.9888 N.pl3   
  19 N19           -1.3173    -8.4950     0.9172 N.2     
  20 C20           -1.9782    -7.7164     0.0984 C.2     
  21 C21           -1.1084    -6.7390    -0.3855 C.2     
  22 C22            0.1187    -6.9554     0.1758 C.2     
  23 C23            1.0775    -8.6319     1.7973 C.3     
  24 Cl24           5.1921    -6.8318    -0.9127 Cl      
  25 Cl25          -0.1900    -2.7157    -2.2838 Cl      
  26 H26            0.3914    -2.8207     2.5366 H       
  27 H27           -0.1034     0.0098    -1.4841 H       
  28 H28           -0.0473     1.8173    -1.1893 H       
  29 H29            0.0645     3.1926    -0.2308 H       
  30 H30            2.5946    -7.8694    -0.3946 H       
  31 H31            4.5299    -4.0774    -0.6577 H       
  32 H32            2.4058    -2.9401    -0.1662 H       
  33 H33           -3.0223    -7.8145    -0.1596 H       
  34 H34           -1.3599    -5.9516    -1.0806 H       
  35 H35            1.6540    -9.3268     1.1866 H       
  36 H36            1.7321    -7.8412     2.1640 H       
  37 H37            0.6431    -9.1653     2.6428 H       
@<TRIPOS>BOND
   1    1    2 1
   2    1    8 2
   3    1    9 am
   4    2    3 ar
   5    2    7 ar
   6    3    4 ar
   7    3   10 1
   8    4    5 ar
   9    4   26 1
  10    5    6 ar
  11    5   11 1
  12    6    7 ar
  13    6   25 1
  14    7   27 1
  15    9   28 1
  16    9   29 1
  17   11   12 1
  18   12   13 ar
  19   12   17 ar
  20   13   14 ar
  21   13   22 1
  22   14   15 ar
  23   14   30 1
  24   15   16 ar
  25   15   24 1
  26   16   17 ar
  27   16   31 1
  28   17   32 1
  29   18   19 1
  30   18   22 1
  31   18   23 1
  32   19   20 2
  33   20   21 1
  34   20   33 1
  35   21   22 2
  36   21   34 1
  37   23   35 1
  38   23   36 1
  39   23   37 1

#	End of record

