#	Name: ASD01910714
#	Creating user name:	WinNT
#	Creation time:	15. 06. 2019 19:56

#	Modifying user name:	WinNT
#	Modification time:	15. 06. 2019 19:56

#	Program:	/corina/corina34_cracker 3.40 0067  02.08.2006

@<TRIPOS>MOLECULE
ASD01910714
  52   55    0    0    0
SMALL
NO_CHARGES


@<TRIPOS>ATOM
   1 C1            12.4812    -1.9056     4.2719 C.ar    
   2 C2            13.1011    -2.0694     3.0404 C.ar    
   3 C3            12.3917    -1.7498     1.8965 C.ar    
   4 C4            11.0889    -1.2780     2.0182 C.ar    
   5 N5            10.5325    -1.1352     3.2114 N.ar    
   6 C6            11.1850    -1.4324     4.3190 C.ar    
   7 N7            10.3646    -0.9532     0.8771 N.3     
   8 C8             9.0191    -0.4774     1.2253 C.3     
   9 C9             8.3208     0.0389    -0.0373 C.3     
  10 N10            8.3616    -1.0182    -1.0592 N.am    
  11 C11            9.6585    -1.6411    -1.3647 C.3     
  12 C12           10.3041    -2.0912    -0.0498 C.3     
  13 C13            7.2404    -1.4055    -1.6989 C.2     
  14 C14            7.3210    -2.3785    -2.8064 C.ar    
  15 O15            6.1625    -0.9537    -1.3640 O.2     
  16 C16            6.3464    -3.3726    -2.9362 C.ar    
  17 C17            6.4169    -4.2834    -3.9682 C.ar    
  18 C18            7.4551    -4.2210    -4.8860 C.ar    
  19 C19            8.4400    -3.2269    -4.7659 C.ar    
  20 C20            8.3661    -2.3027    -3.7265 C.ar    
  21 C21            9.5134    -3.1608    -5.7115 C.1     
  22 C22           10.3934    -3.1065    -6.4867 C.1     
  23 C23           11.4668    -3.0404    -7.4322 C.ar    
  24 O24            7.5195    -5.1204    -5.8993 O.3     
  25 C25           12.4544    -2.0526    -7.3215 C.ar    
  26 C26           13.4700    -2.0330    -8.2608 C.ar    
  27 C27           13.4784    -2.9796    -9.2695 C.ar    
  28 N28           12.5352    -3.8988    -9.3499 N.ar    
  29 C29           11.5507    -3.9634    -8.4782 C.ar    
  30 C30            6.4848    -6.1040    -5.9603 C.3     
  31 H31           13.0060    -2.1502     5.1836 H       
  32 H32           14.1144    -2.4376     2.9769 H       
  33 H33           12.8435    -1.8648     0.9223 H       
  34 H34           10.6992    -1.3032     5.2748 H       
  35 H35            8.4417    -1.2984     1.6503 H       
  36 H36            9.0959     0.3294     1.9542 H       
  37 H37            7.2844     0.2861     0.1926 H       
  38 H38            8.8384     0.9245    -0.4058 H       
  39 H39            9.5065    -2.5045    -2.0124 H       
  40 H40           10.3047    -0.9169    -1.8608 H       
  41 H41           11.3128    -2.4548    -0.2457 H       
  42 H42            9.7088    -2.8897     0.3930 H       
  43 H43            5.5355    -3.4272    -2.2250 H       
  44 H44            5.6609    -5.0490    -4.0625 H       
  45 H45            9.1201    -1.5357    -3.6285 H       
  46 H46           12.4235    -1.3252    -6.5237 H       
  47 H47           14.2482    -1.2861    -8.2073 H       
  48 H48           14.2701    -2.9657   -10.0039 H       
  49 H49           10.7972    -4.7308    -8.5770 H       
  50 H50            6.4901    -6.6943    -5.0440 H       
  51 H51            5.5194    -5.6097    -6.0684 H       
  52 H52            6.6556    -6.7585    -6.8151 H       
@<TRIPOS>BOND
   1    1    2 ar
   2    1    6 ar
   3    1   31 1
   4    2    3 ar
   5    2   32 1
   6    3    4 ar
   7    3   33 1
   8    4    5 ar
   9    4    7 1
  10    5    6 ar
  11    6   34 1
  12    7    8 1
  13    7   12 1
  14    8    9 1
  15    8   35 1
  16    8   36 1
  17    9   10 1
  18    9   37 1
  19    9   38 1
  20   10   11 1
  21   10   13 am
  22   11   12 1
  23   11   39 1
  24   11   40 1
  25   12   41 1
  26   12   42 1
  27   13   14 1
  28   13   15 2
  29   14   16 ar
  30   14   20 ar
  31   16   17 ar
  32   16   43 1
  33   17   18 ar
  34   17   44 1
  35   18   19 ar
  36   18   24 1
  37   19   20 ar
  38   19   21 1
  39   20   45 1
  40   21   22 3
  41   22   23 1
  42   23   25 ar
  43   23   29 ar
  44   24   30 1
  45   25   26 ar
  46   25   46 1
  47   26   27 ar
  48   26   47 1
  49   27   28 ar
  50   27   48 1
  51   28   29 ar
  52   29   49 1
  53   30   50 1
  54   30   51 1
  55   30   52 1

#	End of record

