#	Name: ASD01883054
#	Creating user name:	WinNT
#	Creation time:	15. 06. 2019 19:45

#	Modifying user name:	WinNT
#	Modification time:	15. 06. 2019 19:45

#	Program:	/corina/corina34_cracker 3.40 0067  02.08.2006

@<TRIPOS>MOLECULE
ASD01883054
  39   41    0    0    0
SMALL
NO_CHARGES


@<TRIPOS>ATOM
   1 N1            -0.0162     1.3415     0.0094 N.am    
   2 C2             0.0021    -0.0041     0.0020 C.2     
   3 C3            -1.2144    -0.7274     0.0102 C.2     
   4 C4            -2.4281    -0.0089     0.0261 C.2     
   5 C5            -2.3786     1.4027     0.0332 C.2     
   6 C6            -1.1855     2.0348     0.0299 C.2     
   7 O7             1.0660    -0.5997    -0.0122 O.2     
   8 C8            -1.2131    -2.1594     0.0021 C.1     
   9 N9            -1.2121    -3.2954    -0.0044 N.1     
  10 C10            1.2518     2.0753     0.0013 C.3     
  11 C11           -3.7164    -0.7137     0.0347 C.2     
  12 C12            1.6794     2.3385    -1.4440 C.3     
  13 C13            2.9362     3.2111    -1.4531 C.3     
  14 C14            3.3638     3.4743    -2.8984 C.3     
  15 C15            3.6617     2.1437    -3.5925 C.3     
  16 C16            2.4049     1.2711    -3.5833 C.3     
  17 C17            1.9773     1.0079    -2.1381 C.3     
  18 C18           -4.6275    -0.6873     1.0523 C.2     
  19 C19           -5.7512    -1.4391     0.7958 C.2     
  20 C20           -5.7604    -2.0590    -0.3892 C.2     
  21 S21           -4.3366    -1.7208    -1.2664 S.3     
  22 H22           -3.2940     1.9757     0.0451 H       
  23 H23           -1.1596     3.1145     0.0354 H       
  24 H24            1.1254     3.0248     0.5214 H       
  25 H25            2.0169     1.4842     0.5046 H       
  26 H26            0.8765     2.8523    -1.9726 H       
  27 H27            2.7239     4.1590    -0.9587 H       
  28 H28            3.7391     2.6973    -0.9245 H       
  29 H29            2.5609     3.9881    -3.4270 H       
  30 H30            4.2591     4.0959    -2.9049 H       
  31 H31            3.9663     2.3312    -4.6221 H       
  32 H32            4.4646     1.6299    -3.0638 H       
  33 H33            1.6020     1.7849    -4.1120 H       
  34 H34            2.6172     0.3232    -4.0778 H       
  35 H35            2.7802     0.4941    -1.6094 H       
  36 H36            1.0820     0.3863    -2.1316 H       
  37 H37           -4.4803    -0.1322     1.9670 H       
  38 H38           -6.5658    -1.5226     1.4999 H       
  39 H39           -6.5641    -2.6864    -0.7454 H       
@<TRIPOS>BOND
   1    1    2 am
   2    1   10 1
   3    1    6 1
   4    2    3 1
   5    2    7 2
   6    3    4 2
   7    3    8 1
   8    4    5 1
   9    4   11 1
  10    5    6 2
  11    5   22 1
  12    6   23 1
  13    8    9 3
  14   10   12 1
  15   10   24 1
  16   10   25 1
  17   11   18 2
  18   11   21 1
  19   12   13 1
  20   12   17 1
  21   12   26 1
  22   13   14 1
  23   13   27 1
  24   13   28 1
  25   14   15 1
  26   14   29 1
  27   14   30 1
  28   15   16 1
  29   15   31 1
  30   15   32 1
  31   16   17 1
  32   16   33 1
  33   16   34 1
  34   17   35 1
  35   17   36 1
  36   18   19 1
  37   18   37 1
  38   19   20 2
  39   19   38 1
  40   20   21 1
  41   20   39 1

#	End of record

