#	Name: ASD09116235
#	Creating user name:	WinNT
#	Creation time:	15. 06. 2019 21:21

#	Modifying user name:	WinNT
#	Modification time:	15. 06. 2019 21:21

#	Program:	/corina/corina34_cracker 3.40 0067  02.08.2006

@<TRIPOS>MOLECULE
ASD09116235
  66   71    0    0    0
SMALL
NO_CHARGES


@<TRIPOS>ATOM
   1 N1            -0.0297     1.4183     0.1452 N.2     
   2 N2            -0.0209     0.0194     0.2663 N.pl3   
   3 C3             1.2224     1.8078     0.1159 C.2     
   4 N4             2.0154     0.7342     0.2116 N.2     
   5 C5             1.2800    -0.3531     0.3032 C.2     
   6 N6             1.6572     3.1283     0.0023 N.pl3   
   7 C7             3.0215     3.4264     0.0966 C.ar    
   8 C8             3.5416     4.5212    -0.5805 C.ar    
   9 C9             5.7216     4.0182     0.2812 C.ar    
  10 C10            3.8546     2.6303     0.8723 C.ar    
  11 C11           -1.1336    -0.8210     0.3352 C.ar    
  12 N12           -1.0318    -2.0870    -0.0410 N.ar    
  13 N13           -2.0274    -2.8994    -0.0063 N.ar    
  14 C14           -3.2231    -2.5142     0.4099 C.ar    
  15 C15           -3.4199    -1.2010     0.8468 C.ar    
  16 C16           -2.3532    -0.3282     0.8063 C.ar    
  17 C17           -4.3848    -3.4331     0.3999 C.ar    
  18 C18           -5.5814    -3.0015    -0.1747 C.ar    
  19 C19           -5.6439    -1.6422    -0.8156 C.3     
  20 C20           -5.7428    -0.5367     0.2320 C.3     
  21 C21           -4.7620    -0.7852     1.3748 C.3     
  22 C22           -4.2983    -4.7054     0.9541 C.ar    
  23 C23           -5.4067    -5.5300     0.9494 C.ar    
  24 C24           -6.5965    -5.0908     0.3977 C.ar    
  25 C25           -6.6843    -3.8281    -0.1626 C.ar    
  26 N26            1.7523    -1.6467     0.4176 N.pl3   
  27 C27            4.8884     4.8156    -0.4875 C.ar    
  28 O28            7.0475     4.3090     0.3720 O.3     
  29 C29            7.5135     5.4465    -0.3567 C.3     
  30 C30            5.2019     2.9257     0.9646 C.ar    
  31 C31            9.0179     5.6136    -0.1340 C.3     
  32 F32            6.0143     2.1483     1.7134 F       
  33 N33            9.7288     4.4646    -0.7107 N.3     
  34 C34           11.1844     4.6989    -0.7291 C.3     
  35 C35            9.4600     3.2331     0.0618 C.3     
  36 C36           10.7752     2.4189    -0.0213 C.3     
  37 C37           11.8437     3.5414     0.0500 C.3     
  38 H38            1.0141     3.8400    -0.1420 H       
  39 H39            2.8933     5.1428    -1.1803 H       
  40 H40            3.4500     1.7813     1.4031 H       
  41 H41           -2.4585     0.7000     1.1198 H       
  42 H42           -4.7454    -1.4880    -1.4130 H       
  43 H43           -6.5164    -1.5951    -1.4672 H       
  44 H44           -5.5145     0.4215    -0.2348 H       
  45 H45           -6.7573    -0.5087     0.6295 H       
  46 H46           -5.1537    -1.5728     2.0184 H       
  47 H47           -4.6504     0.1297     1.9567 H       
  48 H48           -3.3693    -5.0474     1.3858 H       
  49 H49           -5.3439    -6.5198     1.3770 H       
  50 H50           -7.4621    -5.7366     0.4042 H       
  51 H51           -7.6168    -3.4908    -0.5906 H       
  52 H52            2.7075    -1.8145     0.4357 H       
  53 H53            1.1286    -2.3870     0.4798 H       
  54 H54            5.2923     5.6674    -1.0145 H       
  55 H55            7.3172     5.3027    -1.4192 H       
  56 H56            6.9934     6.3390    -0.0087 H       
  57 H57            9.3571     6.5302    -0.6166 H       
  58 H58            9.2231     5.6684     0.9351 H       
  59 H59           11.5458     4.7069    -1.7574 H       
  60 H60           11.4132     5.6488    -0.2459 H       
  61 H61            9.2302     3.4781     1.0987 H       
  62 H62            8.6389     2.6747    -0.3879 H       
  63 H63           10.8670     1.7380     0.8249 H       
  64 H64           10.8402     1.8774    -0.9651 H       
  65 H65           12.7669     3.2262    -0.4361 H       
  66 H66           12.0307     3.8303     1.0843 H       
@<TRIPOS>BOND
   1    1    2 1
   2    1    3 2
   3    2   11 1
   4    2    5 1
   5    3    4 1
   6    3    6 1
   7    4    5 2
   8    5   26 1
   9    6    7 1
  10    6   38 1
  11    7    8 ar
  12    7   10 ar
  13    8   27 ar
  14    8   39 1
  15    9   30 ar
  16    9   28 1
  17    9   27 ar
  18   10   30 ar
  19   10   40 1
  20   11   12 ar
  21   11   16 ar
  22   12   13 ar
  23   13   14 ar
  24   14   15 ar
  25   14   17 1
  26   15   16 ar
  27   15   21 1
  28   16   41 1
  29   17   18 ar
  30   17   22 ar
  31   18   19 1
  32   18   25 ar
  33   19   20 1
  34   19   42 1
  35   19   43 1
  36   20   21 1
  37   20   44 1
  38   20   45 1
  39   21   46 1
  40   21   47 1
  41   22   23 ar
  42   22   48 1
  43   23   24 ar
  44   23   49 1
  45   24   25 ar
  46   24   50 1
  47   25   51 1
  48   26   52 1
  49   26   53 1
  50   27   54 1
  51   28   29 1
  52   29   31 1
  53   29   55 1
  54   29   56 1
  55   30   32 1
  56   31   33 1
  57   31   57 1
  58   31   58 1
  59   33   34 1
  60   33   35 1
  61   34   37 1
  62   34   59 1
  63   34   60 1
  64   35   36 1
  65   35   61 1
  66   35   62 1
  67   36   37 1
  68   36   63 1
  69   36   64 1
  70   37   65 1
  71   37   66 1

#	End of record

