#	Name: ASD01911634
#	Creating user name:	WinNT
#	Creation time:	15. 06. 2019 19:58

#	Modifying user name:	WinNT
#	Modification time:	15. 06. 2019 19:58

#	Program:	/corina/corina34_cracker 3.40 0067  02.08.2006

@<TRIPOS>MOLECULE
ASD01911634
  34   36    0    0    0
SMALL
NO_CHARGES


@<TRIPOS>ATOM
   1 O1             0.0062     0.0485    -0.4121 O.2     
   2 C2            -0.0165     1.2478    -0.2046 C.2     
   3 C3             1.2315     2.0145    -0.2026 C.2     
   4 C4             2.4860     1.5105    -0.4187 C.2     
   5 S5             1.3813     3.7493     0.0708 S.3     
   6 C6             3.1273     3.6278    -0.1257 C.2     
   7 N7             3.4526     2.3826    -0.3701 N.2     
   8 C8             4.0478     4.7213    -0.0375 C.1     
   9 C9             4.8024     5.6177     0.0348 C.1     
  10 C10            5.7228     6.7112     0.1229 C.ar    
  11 C11            7.0927     6.4923    -0.0517 C.ar    
  12 C12            7.5032     8.8264     0.2926 C.ar    
  13 C13            6.1482     9.0519     0.4614 C.ar    
  14 C14            5.2557     8.0040     0.3784 C.ar    
  15 N15           -1.1907     1.8710     0.0179 N.am    
  16 C16            7.9728     7.5504     0.0342 C.ar    
  17 C17           -2.3907     1.1599    -0.0859 C.ar    
  18 C18           -2.4485    -0.1692     0.3133 C.ar    
  19 C19           -3.6347    -0.8688     0.2102 C.ar    
  20 C20           -4.7650    -0.2470    -0.2907 C.ar    
  21 C21           -4.7101     1.0770    -0.6896 C.ar    
  22 C22           -3.5280     1.7831    -0.5829 C.ar    
  23 Cl23          -6.2543    -1.1297    -0.4194 Cl      
  24 H24            2.6620     0.4632    -0.6154 H       
  25 H25            7.4607     5.4971    -0.2530 H       
  26 H26            8.1973     9.6512     0.3584 H       
  27 H27            5.7893    10.0504     0.6628 H       
  28 H28            4.1985     8.1816     0.5100 H       
  29 H29           -1.2035     2.8128     0.2499 H       
  30 H30            9.0312     7.3829    -0.1001 H       
  31 H31           -1.5665    -0.6551     0.7036 H       
  32 H32           -3.6802    -1.9023     0.5204 H       
  33 H33           -5.5934     1.5597    -1.0808 H       
  34 H34           -3.4858     2.8165    -0.8940 H       
@<TRIPOS>BOND
   1    1    2 2
   2    2    3 1
   3    2   15 am
   4    3    4 2
   5    3    5 1
   6    4    7 1
   7    4   24 1
   8    5    6 1
   9    6    7 2
  10    6    8 1
  11    8    9 3
  12    9   10 1
  13   10   11 ar
  14   10   14 ar
  15   11   16 ar
  16   11   25 1
  17   12   13 ar
  18   12   16 ar
  19   12   26 1
  20   13   14 ar
  21   13   27 1
  22   14   28 1
  23   15   17 1
  24   15   29 1
  25   16   30 1
  26   17   18 ar
  27   17   22 ar
  28   18   19 ar
  29   18   31 1
  30   19   20 ar
  31   19   32 1
  32   20   21 ar
  33   20   23 1
  34   21   22 ar
  35   21   33 1
  36   22   34 1

#	End of record

