#	Name: ASD01908064
#	Creating user name:	WinNT
#	Creation time:	15. 06. 2019 19:54

#	Modifying user name:	WinNT
#	Modification time:	15. 06. 2019 19:54

#	Program:	/corina/corina34_cracker 3.40 0067  02.08.2006

@<TRIPOS>MOLECULE
ASD01908064
  51   54    0    0    0
SMALL
NO_CHARGES


@<TRIPOS>ATOM
   1 S1            -0.1288     1.8249     0.3000 S.3     
   2 N2            -0.1609     0.1267     0.2510 N.2     
   3 C3             1.0627    -0.2444    -0.0292 C.2     
   4 N4             1.9648     0.7046    -0.1954 N.2     
   5 C5             1.5506     1.9453    -0.0638 C.2     
   6 N6             2.3027     3.1008    -0.1910 N.pl3   
   7 C7             1.6806     4.3449    -0.1423 C.ar    
   8 C8             2.4514     5.5026    -0.1726 C.ar    
   9 C9             1.8201     6.7324    -0.1236 C.ar    
  10 C10            0.4340     6.7631    -0.0455 C.ar    
  11 C11           -0.2683     5.5749    -0.0194 C.ar    
  12 N12            0.3604     4.4160    -0.0730 N.ar    
  13 N13            1.2928    -3.8638    -0.1990 N.pl3   
  14 N14            2.6156    -3.4978    -0.4754 N.2     
  15 C15            2.6997    -2.1941    -0.4505 C.2     
  16 C16            1.4224    -1.6790    -0.1548 C.2     
  17 C17            0.5759    -2.7387    -0.0054 C.2     
  18 C18           -0.8943    -2.6647     0.3173 C.3     
  19 C19           -1.0791    -2.5551     1.8321 C.3     
  20 C20           -2.5712    -2.5974     2.1682 C.3     
  21 C21            0.7755    -5.2330    -0.1372 C.3     
  22 C22            0.4305    -5.7029    -1.5269 C.ar    
  23 C23            1.4087    -6.2600    -2.3298 C.ar    
  24 C24            1.0950    -6.6915    -3.6041 C.ar    
  25 C25           -0.2027    -6.5654    -4.0780 C.ar    
  26 C26           -1.1824    -6.0060    -3.2705 C.ar    
  27 C27           -0.8648    -5.5813    -1.9949 C.ar    
  28 O28           -0.5137    -6.9887    -5.3314 O.3     
  29 C29           -1.8697    -6.8276    -5.7528 C.3     
  30 H30            3.2631     3.0433    -0.3141 H       
  31 H31            3.5280     5.4420    -0.2333 H       
  32 H32            2.3924     7.6480    -0.1451 H       
  33 H33           -0.0893     7.7070    -0.0053 H       
  34 H34           -1.3464     5.5941     0.0416 H       
  35 H35            3.5929    -1.6129    -0.6256 H       
  36 H36           -1.3287    -1.7896    -0.1660 H       
  37 H37           -1.3916    -3.5643    -0.0453 H       
  38 H38           -0.5728    -3.3874     2.3210 H       
  39 H39           -0.6542    -1.6146     2.1829 H       
  40 H40           -2.7028    -2.5194     3.2474 H       
  41 H41           -3.0775    -1.7652     1.6793 H       
  42 H42           -2.9961    -3.5379     1.8174 H       
  43 H43            1.5338    -5.8890     0.2903 H       
  44 H44           -0.1182    -5.2560     0.4864 H       
  45 H45            2.4189    -6.3577    -1.9605 H       
  46 H46            1.8594    -7.1263    -4.2309 H       
  47 H47           -2.1933    -5.9067    -3.6372 H       
  48 H48           -1.6281    -5.1501    -1.3641 H       
  49 H49           -2.1352    -5.7708    -5.7263 H       
  50 H50           -1.9815    -7.2049    -6.7693 H       
  51 H51           -2.5265    -7.3842    -5.0843 H       
@<TRIPOS>BOND
   1    1    2 1
   2    1    5 1
   3    2    3 2
   4    3    4 1
   5    3   16 1
   6    4    5 2
   7    5    6 1
   8    6    7 1
   9    6   30 1
  10    7    8 ar
  11    7   12 ar
  12    8    9 ar
  13    8   31 1
  14    9   10 ar
  15    9   32 1
  16   10   11 ar
  17   10   33 1
  18   11   12 ar
  19   11   34 1
  20   13   14 1
  21   13   17 1
  22   13   21 1
  23   14   15 2
  24   15   16 1
  25   15   35 1
  26   16   17 2
  27   17   18 1
  28   18   19 1
  29   18   36 1
  30   18   37 1
  31   19   20 1
  32   19   38 1
  33   19   39 1
  34   20   40 1
  35   20   41 1
  36   20   42 1
  37   21   22 1
  38   21   43 1
  39   21   44 1
  40   22   23 ar
  41   22   27 ar
  42   23   24 ar
  43   23   45 1
  44   24   25 ar
  45   24   46 1
  46   25   26 ar
  47   25   28 1
  48   26   27 ar
  49   26   47 1
  50   27   48 1
  51   28   29 1
  52   29   49 1
  53   29   50 1
  54   29   51 1

#	End of record

