#	Name: ASD04840105
#	Creating user name:	WinNT
#	Creation time:	15. 06. 2019 20:52

#	Modifying user name:	WinNT
#	Modification time:	15. 06. 2019 20:52

#	Program:	/corina/corina34_cracker 3.40 0067  02.08.2006

@<TRIPOS>MOLECULE
ASD04840105
  57   59    0    0    0
SMALL
NO_CHARGES


@<TRIPOS>ATOM
   1 O1            -2.0927     1.9963     4.6614 O.2     
   2 P2            -0.9917     1.0232     4.8379 P.3     
   3 O3             0.3070     1.7809     5.4136 O.3     
   4 O4            -1.4482    -0.1217     5.8737 O.3     
   5 C5            -0.5890     0.2631     3.2306 C.3     
   6 P6            -1.8906    -0.9312     2.7801 P.3     
   7 O7            -1.7580    -1.3066     1.2201 O.3     
   8 O8            -1.7401    -2.1563     3.5969 O.2     
   9 O9            -3.3364    -0.2780     3.0539 O.3     
  10 C10           -0.5028     1.3517     2.1589 C.3     
  11 C11            0.6681     2.2539     2.4525 C.2     
  12 C12            1.9469     2.0413     2.1048 C.2     
  13 C13            2.4484     0.8403     1.3450 C.3     
  14 C14            2.9698     1.2838    -0.0234 C.3     
  15 C15            3.5802     0.1756     2.1311 C.3     
  16 C16            3.0587    -0.2679     3.4995 C.3     
  17 C17            4.0893    -1.0437     1.3597 C.3     
  18 N18            2.7280     3.0761     2.5421 N.pl3   
  19 C19            1.9518     4.0045     3.1991 C.ar    
  20 C20            2.2356     5.2154     3.8238 C.ar    
  21 C21            1.2351     5.9387     4.4065 C.ar    
  22 C22            0.6257     3.5329     3.1661 C.ar    
  23 C23           -0.3939     4.2792     3.7559 C.ar    
  24 C24           -0.0848     5.4770     4.3859 C.ar    
  25 C25           -1.1604     6.2806     5.0179 C.ar    
  26 C26           -0.8544     7.4834     5.6512 C.ar    
  27 C27           -1.8588     8.2270     6.2370 C.ar    
  28 C28           -3.1673     7.7802     6.1961 C.ar    
  29 C29           -3.4767     6.5869     5.5687 C.ar    
  30 C30           -2.4810     5.8379     4.9751 C.ar    
  31 H31            0.1479     2.2648     6.2355 H       
  32 H32           -0.7740    -0.7953     6.0375 H       
  33 H33            0.3684    -0.2528     3.3023 H       
  34 H34           -2.4202    -1.9393     0.9102 H       
  35 H35           -3.5044     0.5304     2.5506 H       
  36 H36           -0.3688     0.8891     1.1811 H       
  37 H37           -1.4221     1.9373     2.1610 H       
  38 H38            1.6333     0.1293     1.2102 H       
  39 H39            3.8521     1.9099     0.1095 H       
  40 H40            3.2327     0.4061    -0.6139 H       
  41 H41            2.1962     1.8513    -0.5405 H       
  42 H42            4.3953     0.8866     2.2659 H       
  43 H43            2.2436    -0.9789     3.3647 H       
  44 H44            3.8650    -0.7415     4.0595 H       
  45 H45            2.6960     0.6008     4.0490 H       
  46 H46            3.2742    -1.7547     1.2249 H       
  47 H47            4.4608    -0.7278     0.3849 H       
  48 H48            4.8956    -1.5173     1.9198 H       
  49 H49            3.6864     3.1451     2.4095 H       
  50 H50            3.2505     5.5838     3.8479 H       
  51 H51            1.4654     6.8772     4.8888 H       
  52 H52           -1.4125     3.9210     3.7361 H       
  53 H53            0.1669     7.8330     5.6840 H       
  54 H54           -1.6227     9.1592     6.7284 H       
  55 H55           -3.9495     8.3630     6.6596 H       
  56 H56           -4.4999     6.2425     5.5400 H       
  57 H57           -2.7237     4.9064     4.4854 H       
@<TRIPOS>BOND
   1    1    2 2
   2    2    3 1
   3    2    5 1
   4    2    4 1
   5    3   31 1
   6    4   32 1
   7    5    6 1
   8    5   33 1
   9    5   10 1
  10    6    9 1
  11    6    7 1
  12    6    8 2
  13    7   34 1
  14    9   35 1
  15   10   11 1
  16   10   36 1
  17   10   37 1
  18   11   22 1
  19   11   12 2
  20   12   13 1
  21   12   18 1
  22   13   14 1
  23   13   38 1
  24   13   15 1
  25   14   39 1
  26   14   40 1
  27   14   41 1
  28   15   17 1
  29   15   42 1
  30   15   16 1
  31   16   43 1
  32   16   44 1
  33   16   45 1
  34   17   46 1
  35   17   47 1
  36   17   48 1
  37   18   49 1
  38   18   19 1
  39   19   20 ar
  40   19   22 ar
  41   20   50 1
  42   20   21 ar
  43   21   51 1
  44   21   24 ar
  45   22   23 ar
  46   23   24 ar
  47   23   52 1
  48   24   25 1
  49   25   26 ar
  50   25   30 ar
  51   26   53 1
  52   26   27 ar
  53   27   54 1
  54   27   28 ar
  55   28   29 ar
  56   28   55 1
  57   29   30 ar
  58   29   56 1
  59   30   57 1

#	End of record

