#	Name: ASD03240704
#	Creating user name:	WinNT
#	Creation time:	15. 06. 2019 20:35

#	Modifying user name:	WinNT
#	Modification time:	15. 06. 2019 20:35

#	Program:	/corina/corina34_cracker 3.40 0067  02.08.2006

@<TRIPOS>MOLECULE
ASD03240704
  74   81    0    0    0
SMALL
NO_CHARGES


@<TRIPOS>ATOM
   1 C1            -0.0162     1.3406     0.0094 C.2     
   2 N2             0.0021    -0.0041     0.0020 N.2     
   3 C3             1.1202    -0.6827    -0.0123 C.2     
   4 C4             2.3899     0.0407    -0.0205 C.ar    
   5 C5             2.3641     1.4519    -0.0127 C.ar    
   6 N6             1.1344     2.0817     0.0024 N.pl3   
   7 C7             3.6179    -0.6286    -0.0353 C.ar    
   8 C8             4.7783     0.1389    -0.0418 C.ar    
   9 C9             4.6723     1.5432    -0.0333 C.ar    
  10 N10            3.4908     2.1422    -0.0202 N.ar    
  11 N11            0.7735     3.4345     0.0131 N.2     
  12 C12           -0.5349     3.5228     0.0261 C.2     
  13 C13           -1.0721     2.2417     0.0301 C.2     
  14 C14            6.1096    -0.5133    -0.0570 C.ar    
  15 C15            6.4052    -1.5217     0.8589 C.ar    
  16 C16            7.6459    -2.1255     0.8397 C.ar    
  17 C17            8.5956    -1.7316    -0.0857 C.ar    
  18 C18            8.3081    -0.7312    -0.9968 C.ar    
  19 C19            7.0686    -0.1245    -0.9910 C.ar    
  20 C20            5.9041     2.3651    -0.0402 C.ar    
  21 C21            5.9318     3.5795    -0.7260 C.ar    
  22 C22            7.0825     4.3409    -0.7287 C.ar    
  23 C23            8.2073     3.9021    -0.0532 C.ar    
  24 C24            8.1861     2.6985     0.6288 C.ar    
  25 C25            7.0396     1.9309     0.6437 C.ar    
  26 C26            9.4609     4.7383    -0.0606 C.3     
  27 N27            9.4381     5.6652     1.0788 N.3     
  28 C28           10.7381     6.3277     1.2444 C.3     
  29 C29           10.7232     7.1715     2.5211 C.3     
  30 C30            9.6063     8.2145     2.4247 C.3     
  31 C31            8.2697     7.5007     2.2041 C.3     
  32 C32            8.3558     6.6474     0.9366 C.3     
  33 C33            9.3208     8.4867     4.8969 C.2     
  34 N34            9.3379     9.4828     5.8026 N.am    
  35 C35            9.5877    10.6792     5.1345 C.ar    
  36 C36            9.7219    10.3647     3.7803 C.ar    
  37 N37            9.5493     8.9871     3.6681 N.am    
  38 C38            9.7122    11.9947     5.5533 C.ar    
  39 C39            9.9684    12.9892     4.6293 C.ar    
  40 C40           10.1014    12.6776     3.2874 C.ar    
  41 C41            9.9789    11.3694     2.8605 C.ar    
  42 O42            9.1326     7.3117     5.1511 O.2     
  43 C43           -1.3265     4.8050     0.0413 C.3     
  44 H44            1.1053    -1.7626    -0.0176 H       
  45 H45            3.6639    -1.7076    -0.0412 H       
  46 H46           -2.1226     1.9916     0.0442 H       
  47 H47            5.6647    -1.8296     1.5823 H       
  48 H48            7.8761    -2.9069     1.5489 H       
  49 H49            9.5654    -2.2067    -0.0968 H       
  50 H50            9.0535    -0.4274    -1.7168 H       
  51 H51            6.8436     0.6534    -1.7057 H       
  52 H52            5.0544     3.9230    -1.2540 H       
  53 H53            7.1053     5.2811    -1.2595 H       
  54 H54            9.0673     2.3613     1.1543 H       
  55 H55            7.0228     0.9937     1.1801 H       
  56 H56           10.3321     4.0878     0.0175 H       
  57 H57            9.5135     5.3059    -0.9897 H       
  58 H58           11.5230     5.5748     1.3159 H       
  59 H59           10.9296     6.9714     0.3859 H       
  60 H60           10.5454     6.5264     3.3815 H       
  61 H61           11.6829     7.6755     2.6354 H       
  62 H62            9.8043     8.8839     1.5875 H       
  63 H63            8.0534     6.8608     3.0596 H       
  64 H64            7.4766     8.2399     2.0920 H       
  65 H65            8.5585     7.2896     0.0795 H       
  66 H66            7.4104     6.1266     0.7845 H       
  67 H67            9.1993     9.3841     6.7576 H       
  68 H68            9.6088    12.2417     6.5996 H       
  69 H69           10.0651    14.0142     4.9554 H       
  70 H70           10.3017    13.4605     2.5709 H       
  71 H71           10.0837    11.1300     1.8126 H       
  72 H72           -1.5275     5.1201    -0.9827 H       
  73 H73           -2.2695     4.6437     0.5635 H       
  74 H74           -0.7550     5.5788     0.5539 H       
@<TRIPOS>BOND
   1    1    2 1
   2    1    6 1
   3    1   13 2
   4    2    3 2
   5    3    4 1
   6    3   44 1
   7    4    5 ar
   8    4    7 ar
   9    5    6 1
  10    5   10 ar
  11    6   11 1
  12    7    8 ar
  13    7   45 1
  14    8    9 ar
  15    8   14 1
  16    9   10 ar
  17    9   20 1
  18   11   12 2
  19   12   13 1
  20   12   43 1
  21   13   46 1
  22   14   15 ar
  23   14   19 ar
  24   15   16 ar
  25   15   47 1
  26   16   17 ar
  27   16   48 1
  28   17   18 ar
  29   17   49 1
  30   18   19 ar
  31   18   50 1
  32   19   51 1
  33   20   21 ar
  34   20   25 ar
  35   21   22 ar
  36   21   52 1
  37   22   23 ar
  38   22   53 1
  39   23   24 ar
  40   23   26 1
  41   24   25 ar
  42   24   54 1
  43   25   55 1
  44   26   27 1
  45   26   56 1
  46   26   57 1
  47   27   28 1
  48   27   32 1
  49   28   29 1
  50   28   58 1
  51   28   59 1
  52   29   30 1
  53   29   60 1
  54   29   61 1
  55   30   31 1
  56   30   37 1
  57   30   62 1
  58   31   32 1
  59   31   63 1
  60   31   64 1
  61   32   65 1
  62   32   66 1
  63   33   34 am
  64   33   37 am
  65   33   42 2
  66   34   35 1
  67   34   67 1
  68   35   36 ar
  69   35   38 ar
  70   36   37 1
  71   36   41 ar
  72   38   39 ar
  73   38   68 1
  74   39   40 ar
  75   39   69 1
  76   40   41 ar
  77   40   70 1
  78   41   71 1
  79   43   72 1
  80   43   73 1
  81   43   74 1

#	End of record

