#	Name: ASD01720007
#	Creating user name:	WinNT
#	Creation time:	15. 06. 2019 19:23

#	Modifying user name:	WinNT
#	Modification time:	15. 06. 2019 19:23

#	Program:	/corina/corina34_cracker 3.40 0067  02.08.2006

@<TRIPOS>MOLECULE
ASD01720007
  50   53    0    0    0
SMALL
NO_CHARGES


@<TRIPOS>ATOM
   1 N1            -0.1019     1.4169     0.3348 N.am    
   2 C2             0.2736     0.2074    -0.1261 C.2     
   3 O3             1.4517    -0.0377    -0.3008 O.2     
   4 N4            -0.6566    -0.7305    -0.3934 N.am    
   5 C5            -0.2777    -1.9469    -0.9720 C.ar    
   6 C6            -0.9250    -3.1213    -0.6101 C.ar    
   7 C7            -0.5490    -4.3200    -1.1833 C.ar    
   8 C8             0.4712    -4.3521    -2.1165 C.ar    
   9 C9             1.1178    -3.1849    -2.4786 C.ar    
  10 C10            0.7423    -1.9817    -1.9134 C.ar    
  11 C11           -1.2508    -5.5947    -0.7912 C.3     
  12 F12           -2.3464    -5.8027    -1.6359 F       
  13 F13           -0.3630    -6.6699    -0.9055 F       
  14 F14           -1.6944    -5.4948     0.5318 F       
  15 C15            0.8665     2.3512     0.7174 C.ar    
  16 C16            0.5928     3.7211     0.6336 C.ar    
  17 C17            1.5631     4.6429     1.0167 C.ar    
  18 C18            2.7886     4.2028     1.4767 C.ar    
  19 C19            3.0568     2.8482     1.5587 C.ar    
  20 C20            2.0989     1.9235     1.1865 C.ar    
  21 C21           -1.2745     3.7400    -1.0051 C.2     
  22 C22           -0.7251     4.1888     0.1383 C.2     
  23 C23           -1.4966     5.1288     0.8192 C.2     
  24 C24           -2.6521     5.4351     0.2345 C.2     
  25 S25           -2.8303     4.5204    -1.2563 S.3     
  26 S26            4.6243     2.2987     2.1466 S.o2    
  27 O27            4.8163     0.9938     1.6178 O.2     
  28 O28            5.5332     3.3684     1.9256 O.2     
  29 N29            4.4982     2.1240     3.7886 N.am    
  30 C30            3.6006     1.1118     4.3507 C.3     
  31 C31            4.0426     0.4120     5.6374 C.3     
  32 C32            2.9089     1.4386     5.6757 C.3     
  33 H33           -1.0435     1.6411     0.3975 H       
  34 H34           -1.5889    -0.5622    -0.1846 H       
  35 H35           -1.7213    -3.0970     0.1191 H       
  36 H36            0.7637    -5.2909    -2.5631 H       
  37 H37            1.9146    -3.2133    -3.2071 H       
  38 H38            1.2447    -1.0696    -2.2000 H       
  39 H39            1.3578     5.7013     0.9539 H       
  40 H40            3.5406     4.9189     1.7733 H       
  41 H41            2.3124     0.8672     1.2572 H       
  42 H42           -0.8267     3.0153    -1.6690 H       
  43 H43           -1.1807     5.5747     1.7508 H       
  44 H44           -3.3735     6.1409     0.6189 H       
  45 H45            5.0187     2.6918     4.3781 H       
  46 H46            3.0426     0.5223     3.6233 H       
  47 H47            3.7750    -0.6379     5.7567 H       
  48 H48            5.0013     0.7046     6.0657 H       
  49 H49            3.1216     2.4067     6.1292 H       
  50 H50            1.8954     1.0642     5.8202 H       
@<TRIPOS>BOND
   1    1    2 am
   2    1   15 1
   3    1   33 1
   4    2    3 2
   5    2    4 am
   6    4    5 1
   7    4   34 1
   8    5    6 ar
   9    5   10 ar
  10    6    7 ar
  11    6   35 1
  12    7    8 ar
  13    7   11 1
  14    8    9 ar
  15    8   36 1
  16    9   10 ar
  17    9   37 1
  18   10   38 1
  19   11   12 1
  20   11   13 1
  21   11   14 1
  22   15   16 ar
  23   15   20 ar
  24   16   17 ar
  25   16   22 1
  26   17   18 ar
  27   17   39 1
  28   18   19 ar
  29   18   40 1
  30   19   20 ar
  31   19   26 1
  32   20   41 1
  33   21   22 2
  34   21   25 1
  35   21   42 1
  36   22   23 1
  37   23   24 2
  38   23   43 1
  39   24   25 1
  40   24   44 1
  41   26   27 2
  42   26   28 2
  43   26   29 am
  44   29   30 1
  45   29   45 1
  46   30   31 1
  47   30   32 1
  48   30   46 1
  49   31   32 1
  50   31   47 1
  51   31   48 1
  52   32   49 1
  53   32   50 1

#	End of record

