#	Name: ASD05130094
#	Creating user name:	WinNT
#	Creation time:	15. 06. 2019 20:56

#	Modifying user name:	WinNT
#	Modification time:	15. 06. 2019 20:56

#	Program:	/corina/corina34_cracker 3.40 0067  02.08.2006

@<TRIPOS>MOLECULE
ASD05130094
  61   64    0    0    0
SMALL
NO_CHARGES


@<TRIPOS>ATOM
   1 N1             2.1408     0.6736    -2.4903 N.am    
   2 C2             1.7606    -0.6011    -2.2734 C.2     
   3 O3             2.3803    -1.5152    -2.7819 O.2     
   4 N4             0.6935    -0.8625    -1.4927 N.am    
   5 C5             3.3718     0.9545    -3.2333 C.3     
   6 C6             1.3199     1.7783    -1.9884 C.3     
   7 N7             1.4948    -5.5989    -1.6496 N.am    
   8 C8             1.0410    -6.8583    -1.4959 C.2     
   9 C9            -0.3448    -7.0987    -1.0862 C.2     
  10 C10           -1.1758    -6.0357    -0.8605 C.2     
  11 C11           -0.6753    -4.7225    -1.0289 C.ar    
  12 C12           -1.4905    -3.6052    -0.8092 C.ar    
  13 N13           -1.0092    -2.3919    -0.9689 N.ar    
  14 C14            0.2469    -2.1716    -1.3402 C.ar    
  15 C15            1.1219    -3.2204    -1.5794 C.ar    
  16 C16            0.6653    -4.5248    -1.4246 C.ar    
  17 O17            1.7859    -7.8006    -1.6988 O.2     
  18 C18            2.8844    -5.3715    -2.0538 C.3     
  19 C19            2.9692    -5.3178    -3.5805 C.3     
  20 C20           -0.8431    -8.4838    -0.9179 C.ar    
  21 C21           -0.4697    -9.2307     0.2007 C.ar    
  22 C22           -0.9352   -10.5218     0.3557 C.ar    
  23 C23           -1.7722   -11.0783    -0.5958 C.ar    
  24 C24           -2.1489   -10.3401    -1.7133 C.ar    
  25 C25           -1.6905    -9.0423    -1.8730 C.ar    
  26 N26           -2.9960   -10.9072    -2.6747 N.am    
  27 C27           -3.7094   -10.1127    -3.4970 C.2     
  28 O28           -3.6980    -8.9072    -3.3386 O.2     
  29 N29           -4.4354   -10.6543    -4.4950 N.am    
  30 C30           -5.1237    -9.8262    -5.3887 C.ar    
  31 C31           -5.1364   -10.1244    -6.7449 C.ar    
  32 C32           -5.8166    -9.3051    -7.6244 C.ar    
  33 C33           -6.4846    -8.1887    -7.1557 C.ar    
  34 C34           -6.4739    -7.8889    -5.8058 C.ar    
  35 C35           -5.8003    -8.7075    -4.9205 C.ar    
  36 F36           -2.2243   -12.3418    -0.4392 F       
  37 Cl37           0.5804    -8.5371     1.3965 Cl      
  38 H38            0.2369    -0.1381    -1.0371 H       
  39 H39            3.1445     1.0334    -4.2964 H       
  40 H40            3.8015     1.8929    -2.8830 H       
  41 H41            4.0852     0.1461    -3.0733 H       
  42 H42            0.3987     1.3817    -1.5617 H       
  43 H43            1.8715     2.3213    -1.2209 H       
  44 H44            1.0788     2.4539    -2.8091 H       
  45 H45           -2.2002    -6.1964    -0.5584 H       
  46 H46           -2.5183    -3.7406    -0.5061 H       
  47 H47            2.1408    -3.0275    -1.8812 H       
  48 H48            3.2342    -4.4270    -1.6370 H       
  49 H49            3.5082    -6.1852    -1.6837 H       
  50 H50            2.3454    -4.5041    -3.9506 H       
  51 H51            4.0032    -5.1486    -3.8813 H       
  52 H52            2.6195    -6.2623    -3.9973 H       
  53 H53           -0.6452   -11.0986     1.2215 H       
  54 H54           -1.9856    -8.4665    -2.7378 H       
  55 H55           -3.0690   -11.8717    -2.7483 H       
  56 H56           -4.4808   -11.6182    -4.5938 H       
  57 H57           -4.6146   -10.9960    -7.1116 H       
  58 H58           -5.8265    -9.5363    -8.6793 H       
  59 H59           -7.0155    -7.5493    -7.8454 H       
  60 H60           -6.9962    -7.0161    -5.4429 H       
  61 H61           -5.7963    -8.4755    -3.8657 H       
@<TRIPOS>BOND
   1    1    2 am
   2    1    5 1
   3    1    6 1
   4    2    3 2
   5    2    4 am
   6    4   14 1
   7    4   38 1
   8    5   39 1
   9    5   40 1
  10    5   41 1
  11    6   42 1
  12    6   43 1
  13    6   44 1
  14    7    8 am
  15    7   16 1
  16    7   18 1
  17    8    9 1
  18    8   17 2
  19    9   10 2
  20    9   20 1
  21   10   11 1
  22   10   45 1
  23   11   12 ar
  24   11   16 ar
  25   12   13 ar
  26   12   46 1
  27   13   14 ar
  28   14   15 ar
  29   15   16 ar
  30   15   47 1
  31   18   19 1
  32   18   48 1
  33   18   49 1
  34   19   50 1
  35   19   51 1
  36   19   52 1
  37   20   21 ar
  38   20   25 ar
  39   21   22 ar
  40   21   37 1
  41   22   23 ar
  42   22   53 1
  43   23   24 ar
  44   23   36 1
  45   24   25 ar
  46   24   26 1
  47   25   54 1
  48   26   27 am
  49   26   55 1
  50   27   28 2
  51   27   29 am
  52   29   30 1
  53   29   56 1
  54   30   31 ar
  55   30   35 ar
  56   31   32 ar
  57   31   57 1
  58   32   33 ar
  59   32   58 1
  60   33   34 ar
  61   33   59 1
  62   34   35 ar
  63   34   60 1
  64   35   61 1

#	End of record

