#	Name: ASD06170229
#	Creating user name:	WinNT
#	Creation time:	15. 06. 2019 21:05

#	Modifying user name:	WinNT
#	Modification time:	15. 06. 2019 21:05

#	Program:	/corina/corina34_cracker 3.40 0067  02.08.2006

@<TRIPOS>MOLECULE
ASD06170229
  64   68    0    0    0
SMALL
NO_CHARGES


@<TRIPOS>ATOM
   1 C1             0.0494     1.3057    -0.0921 C.2     
   2 C2             0.0240    -0.0861     0.2049 C.2     
   3 C3             1.2437    -0.7098     0.4594 C.2     
   4 C4             2.4052     0.0704     0.4062 C.2     
   5 N5             2.3380     1.3435     0.1261 N.2     
   6 N6             1.2327     1.9486    -0.1136 N.am    
   7 C7            -1.2429    -0.8380     0.2421 C.2     
   8 O8            -1.2296    -2.0450     0.3903 O.2     
   9 N9            -2.4164    -0.1880     0.1119 N.am    
  10 O10           -0.9847     1.9064    -0.3285 O.2     
  11 C11            3.7448    -0.5653     0.6752 C.3     
  12 C12           -3.6065    -0.9092     0.0186 C.ar    
  13 C13           -3.5687    -2.2573    -0.3201 C.ar    
  14 C14           -4.7547    -2.9632    -0.4094 C.ar    
  15 C15           -5.9477    -2.2910    -0.1548 C.ar    
  16 C16           -5.9085    -0.9463     0.1774 C.ar    
  17 N17           -4.7587    -0.3044     0.2587 N.ar    
  18 O18           -7.1366    -2.9462    -0.2318 O.3     
  19 N19           -8.1311    -5.4800     2.8670 N.ar    
  20 C20           -7.0476    -4.7429     2.9389 C.ar    
  21 C21           -6.6805    -3.8785     1.9153 C.ar    
  22 C22           -7.4698    -3.7817     0.7828 C.ar    
  23 C23           -8.6339    -4.5799     0.7164 C.ar    
  24 C24           -9.4832    -4.5366    -0.3994 C.ar    
  25 C25          -10.5991    -5.3220    -0.4297 C.ar    
  26 C26          -10.9050    -6.1715     0.6431 C.ar    
  27 C27          -10.0957    -6.2329     1.7408 C.ar    
  28 C28           -8.9400    -5.4368     1.8016 C.ar    
  29 O29          -12.0219    -6.9435     0.5896 O.3     
  30 C30          -12.2808    -7.7886     1.7125 C.3     
  31 O31          -11.4227    -5.2799    -1.5109 O.3     
  32 C32          -11.0569    -4.3942    -2.5710 C.3     
  33 C33            1.2582     3.3811    -0.4193 C.3     
  34 C34            1.1304     4.1698     0.8585 C.ar    
  35 C35            2.2633     4.5353     1.5613 C.ar    
  36 C36            2.1461     5.2586     2.7334 C.ar    
  37 C37            0.8961     5.6169     3.2025 C.ar    
  38 C38           -0.2367     5.2522     2.4992 C.ar    
  39 C39           -0.1193     4.5326     1.3248 C.ar    
  40 H40            1.2917    -1.7635     0.6913 H       
  41 H41           -2.4333     0.7814     0.0831 H       
  42 H42            4.1664    -0.9337    -0.2600 H       
  43 H43            4.4170     0.1741     1.1105 H       
  44 H44            3.6198    -1.3961     1.3696 H       
  45 H45           -2.6252    -2.7469    -0.5113 H       
  46 H46           -4.7558    -4.0111    -0.6708 H       
  47 H47           -6.8295    -0.4185     0.3762 H       
  48 H48           -6.4243    -4.8101     3.8183 H       
  49 H49           -5.7830    -3.2842     2.0032 H       
  50 H50           -9.2554    -3.8849    -1.2299 H       
  51 H51          -10.3435    -6.8914     2.5602 H       
  52 H52          -12.3892    -7.1784     2.6092 H       
  53 H53          -13.1999    -8.3491     1.5412 H       
  54 H54          -11.4509    -8.4830     1.8437 H       
  55 H55          -11.0170    -3.3725    -2.1933 H       
  56 H56          -10.0783    -4.6766    -2.9591 H       
  57 H57          -11.7965    -4.4578    -3.3691 H       
  58 H58            2.1995     3.6316    -0.9083 H       
  59 H59            0.4281     3.6260    -1.0819 H       
  60 H60            3.2399     4.2553     1.1948 H       
  61 H61            3.0312     5.5436     3.2829 H       
  62 H62            0.8046     6.1815     4.1186 H       
  63 H63           -1.2133     5.5319     2.8659 H       
  64 H64           -1.0041     4.2508     0.7734 H       
@<TRIPOS>BOND
   1    1    2 1
   2    1    6 am
   3    1   10 2
   4    2    3 2
   5    2    7 1
   6    3    4 1
   7    3   40 1
   8    4    5 2
   9    4   11 1
  10    5    6 1
  11    6   33 1
  12    7    8 2
  13    7    9 am
  14    9   12 1
  15    9   41 1
  16   11   42 1
  17   11   43 1
  18   11   44 1
  19   12   13 ar
  20   12   17 ar
  21   13   14 ar
  22   13   45 1
  23   14   15 ar
  24   14   46 1
  25   15   16 ar
  26   15   18 1
  27   16   17 ar
  28   16   47 1
  29   18   22 1
  30   19   20 ar
  31   19   28 ar
  32   20   21 ar
  33   20   48 1
  34   21   22 ar
  35   21   49 1
  36   22   23 ar
  37   23   24 ar
  38   23   28 ar
  39   24   25 ar
  40   24   50 1
  41   25   26 ar
  42   25   31 1
  43   26   27 ar
  44   26   29 1
  45   27   28 ar
  46   27   51 1
  47   29   30 1
  48   30   52 1
  49   30   53 1
  50   30   54 1
  51   31   32 1
  52   32   55 1
  53   32   56 1
  54   32   57 1
  55   33   34 1
  56   33   58 1
  57   33   59 1
  58   34   35 ar
  59   34   39 ar
  60   35   36 ar
  61   35   60 1
  62   36   37 ar
  63   36   61 1
  64   37   38 ar
  65   37   62 1
  66   38   39 ar
  67   38   63 1
  68   39   64 1

#	End of record

