#	Name: ASD05490147
#	Creating user name:	WinNT
#	Creation time:	15. 06. 2019 21:01

#	Modifying user name:	WinNT
#	Modification time:	15. 06. 2019 21:01

#	Program:	/corina/corina34_cracker 3.40 0067  02.08.2006

@<TRIPOS>MOLECULE
ASD05490147
  56   58    0    0    0
SMALL
NO_CHARGES


@<TRIPOS>ATOM
   1 N1             0.0810     1.3065    -0.1780 N.ar    
   2 C2             0.0748    -0.0175    -0.1601 C.ar    
   3 C3             1.2607    -0.7317    -0.1080 C.ar    
   4 C4             2.4696    -0.0400    -0.0745 C.ar    
   5 C5             2.4376     1.3519    -0.0948 C.ar    
   6 C6             1.2114     1.9987    -0.1473 C.ar    
   7 O7            -1.1073    -0.6827    -0.1925 O.3     
   8 N8             1.1674     3.3880    -0.1679 N.pl3   
   9 N9             3.6841    -0.7260    -0.0214 N.am    
  10 C10            4.3418    -0.9522     1.2680 C.3     
  11 C11            3.8123    -2.2203     1.8864 C.ar    
  12 C12            4.4566    -3.4239     1.6742 C.ar    
  13 C13            2.6753    -2.1926     2.6804 C.ar    
  14 N14            3.9995    -4.5382     2.2119 N.ar    
  15 C15            2.9185    -4.5507     2.9681 C.ar    
  16 C16            2.2244    -3.3826     3.2290 C.ar    
  17 Br17           2.3147    -6.1824     3.7090 Br      
  18 C18           -2.2959     0.1088    -0.2453 C.3     
  19 C19           -3.5193    -0.8095    -0.2757 C.3     
  20 C20           -4.7955     0.0347    -0.2064 C.3     
  21 C21           -6.0137    -0.8860    -0.3167 C.3     
  22 O22           -5.9394    -1.6280    -1.5357 O.3     
  23 C23           -4.7904    -2.4718    -1.6361 C.3     
  24 C24           -3.5231    -1.6148    -1.5787 C.3     
  25 C25            4.2516    -1.1803    -1.1563 C.2     
  26 O26            5.3088    -1.7775    -1.1101 O.2     
  27 O27            3.6472    -0.9724    -2.3413 O.3     
  28 C28            3.4852    -1.1594    -4.7639 C.3     
  29 C29            4.3156    -1.4895    -3.5220 C.3     
  30 N30            3.6955     2.1314    -0.0602 N.pl3   
  31 O31            4.2937     2.3683    -1.0944 O.2     
  32 O32            4.1324     2.5358     1.0024 O.2     
  33 H33            1.2482    -1.8115    -0.0933 H       
  34 H34            1.9911     3.8998    -0.1457 H       
  35 H35            0.3129     3.8457    -0.2047 H       
  36 H36            5.4173    -1.0436     1.1161 H       
  37 H37            4.1388    -0.1119     1.9318 H       
  38 H38            5.3448    -3.4527     1.0605 H       
  39 H39            2.1539    -1.2653     2.8669 H       
  40 H40            1.3403    -3.3987     3.8490 H       
  41 H41           -2.3447     0.7500     0.6348 H       
  42 H42           -2.2821     0.7256    -1.1439 H       
  43 H43           -3.4856    -1.4901     0.5750 H       
  44 H44           -4.8277     0.5691     0.7431 H       
  45 H45           -4.8041     0.7502    -1.0286 H       
  46 H46           -6.0264    -1.5748     0.5279 H       
  47 H47           -6.9241    -0.2866    -0.3109 H       
  48 H48           -4.7872    -3.1814    -0.8087 H       
  49 H49           -4.8196    -3.0148    -2.5807 H       
  50 H50           -3.5060    -0.9326    -2.4286 H       
  51 H51           -2.6453    -2.2602    -1.6107 H       
  52 H52            2.5000    -1.6171    -4.6744 H       
  53 H53            3.3770    -0.0784    -4.8518 H       
  54 H54            3.9870    -1.5476    -5.6502 H       
  55 H55            5.3008    -1.0318    -3.6115 H       
  56 H56            4.4239    -2.5706    -3.4341 H       
@<TRIPOS>BOND
   1    1    2 ar
   2    1    6 ar
   3    2    3 ar
   4    2    7 1
   5    3    4 ar
   6    3   33 1
   7    4    5 ar
   8    4    9 1
   9    5    6 ar
  10    5   30 1
  11    6    8 1
  12    7   18 1
  13    8   34 1
  14    8   35 1
  15    9   10 1
  16    9   25 am
  17   10   11 1
  18   10   36 1
  19   10   37 1
  20   11   12 ar
  21   11   13 ar
  22   12   14 ar
  23   12   38 1
  24   13   16 ar
  25   13   39 1
  26   14   15 ar
  27   15   16 ar
  28   15   17 1
  29   16   40 1
  30   18   19 1
  31   18   41 1
  32   18   42 1
  33   19   20 1
  34   19   24 1
  35   19   43 1
  36   20   21 1
  37   20   44 1
  38   20   45 1
  39   21   22 1
  40   21   46 1
  41   21   47 1
  42   22   23 1
  43   23   24 1
  44   23   48 1
  45   23   49 1
  46   24   50 1
  47   24   51 1
  48   25   26 2
  49   25   27 1
  50   27   29 1
  51   28   29 1
  52   28   52 1
  53   28   53 1
  54   28   54 1
  55   29   55 1
  56   29   56 1
  57   30   31 2
  58   30   32 2

#	End of record

