#	Name: ASD01231386
#	Creating user name:	WinNT
#	Creation time:	15. 06. 2019 19:15

#	Modifying user name:	WinNT
#	Modification time:	15. 06. 2019 19:15

#	Program:	/corina/corina34_cracker 3.40 0067  02.08.2006

@<TRIPOS>MOLECULE
ASD01231386
  51   53    0    0    0
SMALL
NO_CHARGES


@<TRIPOS>ATOM
   1 C1            -0.0437     1.3202    -0.2063 C.ar    
   2 C2            -0.0059    -0.0433     0.0160 C.ar    
   3 C3             1.2095    -0.6886     0.1375 C.ar    
   4 C4             2.3910     0.0263     0.0377 C.ar    
   5 C5             2.3532     1.3904    -0.1847 C.ar    
   6 C6             1.1342     2.0352    -0.3066 C.ar    
   7 C7             3.8290    -0.4369     0.1326 C.3     
   8 C8             4.6509     0.8456     0.3812 C.3     
   9 C9             3.7632     1.9366    -0.2544 C.3     
  10 N10            5.9488     0.7714    -0.2943 N.am    
  11 S11            7.2930     1.4223     0.4212 S.o2    
  12 O12            8.3470     1.1365    -0.4880 O.2     
  13 C13            6.9610     3.2050     0.4707 C.3     
  14 C14            8.1407     3.9254     1.1266 C.3     
  15 C15            6.7724     3.7285    -0.9546 C.3     
  16 O16            7.2897     0.8779     1.7337 O.2     
  17 C17           -1.2894    -0.8254     0.1263 C.3     
  18 O18           -1.6775    -1.2888    -1.1686 O.3     
  19 C19           -2.8210    -2.0156    -1.2456 C.ar    
  20 C20           -3.2550    -2.4966    -2.4754 C.ar    
  21 C21           -4.4150    -3.2340    -2.5578 C.ar    
  22 C22           -5.1559    -3.4989    -1.4030 C.ar    
  23 C23           -4.7159    -3.0139    -0.1686 C.ar    
  24 C24           -3.5521    -2.2817    -0.0938 C.ar    
  25 C25           -6.4001    -4.2884    -1.4870 C.2     
  26 O26           -6.7817    -4.7093    -2.5619 O.2     
  27 N27           -7.1133    -4.5429    -0.3720 N.am    
  28 H28           -0.9929     1.8256    -0.3060 H       
  29 H29            1.2382    -1.7542     0.3113 H       
  30 H30            1.1039     3.1007    -0.4806 H       
  31 H31            3.9488    -1.1302     0.9650 H       
  32 H32            4.1368    -0.9084    -0.8007 H       
  33 H33            4.7783     1.0233     1.4491 H       
  34 H34            4.0533     2.1034    -1.2918 H       
  35 H35            3.8382     2.8637     0.3139 H       
  36 H36            6.0208     0.3411    -1.1606 H       
  37 H37            6.0555     3.3901     1.0485 H       
  38 H38            9.0462     3.7404     0.5488 H       
  39 H39            7.9412     4.9966     1.1564 H       
  40 H40            8.2751     3.5525     2.1420 H       
  41 H41            5.8814     3.2781    -1.3921 H       
  42 H42            6.6577     4.8122    -0.9314 H       
  43 H43            7.6436     3.4680    -1.5556 H       
  44 H44           -1.1392    -1.6786     0.7877 H       
  45 H45           -2.0718    -0.1842     0.5323 H       
  46 H46           -2.6819    -2.2914    -3.3675 H       
  47 H47           -4.7520    -3.6068    -3.5138 H       
  48 H48           -5.2859    -3.2162     0.7262 H       
  49 H49           -3.2113    -1.9065     0.8599 H       
  50 H50           -6.8089    -4.2071     0.4856 H       
  51 H51           -7.9310    -5.0618    -0.4272 H       
@<TRIPOS>BOND
   1    1    2 ar
   2    1    6 ar
   3    1   28 1
   4    2    3 ar
   5    2   17 1
   6    3    4 ar
   7    3   29 1
   8    4    5 ar
   9    4    7 1
  10    5    6 ar
  11    5    9 1
  12    6   30 1
  13    7    8 1
  14    7   31 1
  15    7   32 1
  16    8    9 1
  17    8   10 1
  18    8   33 1
  19    9   34 1
  20    9   35 1
  21   10   11 am
  22   10   36 1
  23   11   12 2
  24   11   13 1
  25   11   16 2
  26   13   14 1
  27   13   15 1
  28   13   37 1
  29   14   38 1
  30   14   39 1
  31   14   40 1
  32   15   41 1
  33   15   42 1
  34   15   43 1
  35   17   18 1
  36   17   44 1
  37   17   45 1
  38   18   19 1
  39   19   20 ar
  40   19   24 ar
  41   20   21 ar
  42   20   46 1
  43   21   22 ar
  44   21   47 1
  45   22   23 ar
  46   22   25 1
  47   23   24 ar
  48   23   48 1
  49   24   49 1
  50   25   26 2
  51   25   27 am
  52   27   50 1
  53   27   51 1

#	End of record

