#	Name: ASD00170303
#	Creating user name:	WinNT
#	Creation time:	15. 06. 2019 18:31

#	Modifying user name:	WinNT
#	Modification time:	15. 06. 2019 18:31

#	Program:	/corina/corina34_cracker 3.40 0067  02.08.2006

@<TRIPOS>MOLECULE
ASD00170303
  32   34    0    0    0
SMALL
NO_CHARGES


@<TRIPOS>ATOM
   1 S1             0.1577     1.6246     0.6732 S.3     
   2 N2            -0.1177     0.3149    -0.3761 N.pl3   
   3 C3             1.1096    -0.1395    -0.7263 C.2     
   4 N4             2.1486     0.4582    -0.2379 N.2     
   5 C5             1.9248     1.4941     0.5874 C.2     
   6 N6             2.8189     2.2464     1.1973 N.2     
   7 C7            -1.3531    -0.1885    -0.7903 C.ar    
   8 C8             1.2584    -1.2898    -1.6433 C.ar    
   9 C9             4.2480     1.9874     1.0048 C.3     
  10 C10           -2.2262     0.6164    -1.5121 C.ar    
  11 C11           -3.4467     0.1160    -1.9201 C.ar    
  12 C12           -3.8011    -1.1856    -1.6106 C.ar    
  13 C13           -2.9337    -1.9895    -0.8915 C.ar    
  14 C14           -1.7090    -1.4969    -0.4864 C.ar    
  15 C15            0.2895    -1.5406    -2.6160 C.ar    
  16 C16            0.4346    -2.6154    -3.4687 C.ar    
  17 C17            1.5376    -3.4437    -3.3612 C.ar    
  18 C18            2.5015    -3.2008    -2.3988 C.ar    
  19 C19            2.3713    -2.1261    -1.5436 C.ar    
  20 Cl20          -5.3367    -1.8110    -2.1248 Cl      
  21 H21            4.4823     0.9767     1.3388 H       
  22 H22            4.4962     2.0876    -0.0518 H       
  23 H23            4.8286     2.7053     1.5841 H       
  24 H24           -1.9506     1.6323    -1.7533 H       
  25 H25           -4.1257     0.7410    -2.4811 H       
  26 H26           -3.2132    -3.0046    -0.6508 H       
  27 H27           -1.0326    -2.1246     0.0747 H       
  28 H28           -0.5721    -0.8950    -2.7007 H       
  29 H29           -0.3146    -2.8108    -4.2216 H       
  30 H30            1.6465    -4.2837    -4.0312 H       
  31 H31            3.3597    -3.8516    -2.3196 H       
  32 H32            3.1245    -1.9374    -0.7929 H       
@<TRIPOS>BOND
   1    1    2 1
   2    1    5 1
   3    2    3 1
   4    2    7 1
   5    3    4 2
   6    3    8 1
   7    4    5 1
   8    5    6 2
   9    6    9 1
  10    7   10 ar
  11    7   14 ar
  12    8   15 ar
  13    8   19 ar
  14    9   21 1
  15    9   22 1
  16    9   23 1
  17   10   11 ar
  18   10   24 1
  19   11   12 ar
  20   11   25 1
  21   12   13 ar
  22   12   20 1
  23   13   14 ar
  24   13   26 1
  25   14   27 1
  26   15   16 ar
  27   15   28 1
  28   16   17 ar
  29   16   29 1
  30   17   18 ar
  31   17   30 1
  32   18   19 ar
  33   18   31 1
  34   19   32 1

#	End of record

