#	Name: ASD01810633
#	Creating user name:	WinNT
#	Creation time:	15. 06. 2019 19:25

#	Modifying user name:	WinNT
#	Modification time:	15. 06. 2019 19:25

#	Program:	/corina/corina34_cracker 3.40 0067  02.08.2006

@<TRIPOS>MOLECULE
ASD01810633
  70   74    0    0    0
SMALL
NO_CHARGES


@<TRIPOS>ATOM
   1 C1            -1.1210     2.4470    -1.3770 C.ar    
   2 C2            -0.6391     1.5168    -0.4541 C.ar    
   3 C3            -1.4165     1.1430     0.6245 C.ar    
   4 C4            -2.6743     1.6850     0.7975 C.ar    
   5 C5            -3.1685     2.6166    -0.1184 C.ar    
   6 C6            -2.3870     3.0023    -1.2054 C.ar    
   7 C7            -4.5161     3.1960     0.0679 C.2     
   8 C8             0.7324     0.9191    -0.6354 C.3     
   9 C9            -3.5160     1.2704     1.9768 C.3     
  10 N10           -4.6710     4.5330     0.1382 N.am    
  11 O11           -5.4842     2.4664     0.1578 O.2     
  12 C12           -5.9870     5.1200     0.4251 C.3     
  13 C13           -3.5259     5.4309    -0.0645 C.3     
  14 C14           -3.4243     6.3789     1.1346 C.3     
  15 C15           -4.7614     7.0986     1.3254 C.3     
  16 C16           -5.8527     6.0721     1.6177 C.3     
  17 C17           -4.6547     8.0573     2.4833 C.ar    
  18 C18           -4.8661     9.4094     2.2797 C.ar    
  19 C19           -4.7704    10.2923     3.3355 C.ar    
  20 C20           -4.4596     9.8187     4.6112 C.ar    
  21 C21           -4.2475     8.4535     4.8097 C.ar    
  22 C22           -4.3514     7.5807     3.7463 C.ar    
  23 C23           -4.3549    10.7592     5.7471 C.2     
  24 O24           -4.8172    10.4579     6.8302 O.2     
  25 N25           -3.7469    11.9506     5.5817 N.am    
  26 C26           -3.5496    12.8380     6.7306 C.3     
  27 C27           -3.2834    12.3583     4.2531 C.3     
  28 C28           -0.2866     2.8466    -2.5313 C.2     
  29 N29            0.9670     2.4947    -2.7345 N.2     
  30 C30            1.3929     3.0374    -3.8708 C.2     
  31 C31            0.3777     3.7589    -4.4064 C.2     
  32 N32           -0.6871     3.6389    -3.5715 N.pl3   
  33 C33            2.7474     2.9245    -4.5286 C.3     
  34 C34            2.6003     3.3892    -5.9848 C.3     
  35 O35            1.8893     4.6294    -6.0251 O.3     
  36 C36            0.4962     4.5222    -5.7002 C.3     
  37 H37           -1.0389     0.4230     1.3355 H       
  38 H38           -2.7642     3.7225    -1.9163 H       
  39 H39            1.4808     1.5946    -0.2212 H       
  40 H40            0.7822    -0.0393    -0.1186 H       
  41 H41            0.9260     0.7696    -1.6976 H       
  42 H42           -3.2587     1.8838     2.8403 H       
  43 H43           -4.5704     1.4059     1.7361 H       
  44 H44           -3.3276     0.2218     2.2068 H       
  45 H45           -6.3383     5.6729    -0.4461 H       
  46 H46           -6.6954     4.3280     0.6679 H       
  47 H47           -2.6110     4.8439    -0.1448 H       
  48 H48           -3.6724     6.0097    -0.9765 H       
  49 H49           -3.1878     5.8067     2.0317 H       
  50 H50           -2.6389     7.1125     0.9528 H       
  51 H51           -5.0093     7.6507     0.4189 H       
  52 H52           -6.8013     6.5850     1.7771 H       
  53 H53           -5.5900     5.5062     2.5115 H       
  54 H54           -5.1062     9.7745     1.2921 H       
  55 H55           -4.9353    11.3475     3.1752 H       
  56 H56           -4.0067     8.0808     5.7943 H       
  57 H57           -4.1876     6.5241     3.8986 H       
  58 H58           -3.9560    12.3685     7.6264 H       
  59 H59           -2.4841    13.0224     6.8685 H       
  60 H60           -4.0617    13.7834     6.5517 H       
  61 H61           -4.0858    12.8816     3.7331 H       
  62 H62           -2.4241    13.0211     4.3557 H       
  63 H63           -2.9954    11.4757     3.6821 H       
  64 H64           -1.5617     4.0421    -3.6879 H       
  65 H65            3.4645     3.5598    -4.0088 H       
  66 H66            3.0848     1.8884    -4.5039 H       
  67 H67            3.5887     3.5234    -6.4243 H       
  68 H68            2.0509     2.6376    -6.5517 H       
  69 H69           -0.0269     3.9872    -6.4928 H       
  70 H70            0.0679     5.5174    -5.5816 H       
@<TRIPOS>BOND
   1    1    2 ar
   2    1   28 1
   3    1    6 ar
   4    2    3 ar
   5    2    8 1
   6    3    4 ar
   7    3   37 1
   8    4    5 ar
   9    4    9 1
  10    5    6 ar
  11    5    7 1
  12    6   38 1
  13    7   10 am
  14    7   11 2
  15    8   39 1
  16    8   40 1
  17    8   41 1
  18    9   42 1
  19    9   43 1
  20    9   44 1
  21   10   12 1
  22   10   13 1
  23   12   16 1
  24   12   45 1
  25   12   46 1
  26   13   14 1
  27   13   47 1
  28   13   48 1
  29   14   15 1
  30   14   49 1
  31   14   50 1
  32   15   16 1
  33   15   17 1
  34   15   51 1
  35   16   52 1
  36   16   53 1
  37   17   18 ar
  38   17   22 ar
  39   18   19 ar
  40   18   54 1
  41   19   20 ar
  42   19   55 1
  43   20   21 ar
  44   20   23 1
  45   21   22 ar
  46   21   56 1
  47   22   57 1
  48   23   24 2
  49   23   25 am
  50   25   26 1
  51   25   27 1
  52   26   58 1
  53   26   59 1
  54   26   60 1
  55   27   61 1
  56   27   62 1
  57   27   63 1
  58   28   29 2
  59   28   32 1
  60   29   30 1
  61   30   31 2
  62   30   33 1
  63   31   32 1
  64   31   36 1
  65   32   64 1
  66   33   34 1
  67   33   65 1
  68   33   66 1
  69   34   35 1
  70   34   67 1
  71   34   68 1
  72   35   36 1
  73   36   69 1
  74   36   70 1

#	End of record

