#	Name: ASD02560415
#	Creating user name:	WinNT
#	Creation time:	15. 06. 2019 20:25

#	Modifying user name:	WinNT
#	Modification time:	15. 06. 2019 20:25

#	Program:	/corina/corina34_cracker 3.40 0067  02.08.2006

@<TRIPOS>MOLECULE
ASD02560415
  40   43    0    0    0
SMALL
NO_CHARGES


@<TRIPOS>ATOM
   1 C1             0.0909     0.9086     1.0824 C.2     
   2 C2             0.2584    -0.4877     1.0937 C.2     
   3 C3             1.4525    -1.0330     0.7872 C.2     
   4 N4             2.5183    -0.2381     0.4605 N.pl3   
   5 C5             2.3844     1.1314     0.4407 C.2     
   6 C6             1.1388     1.7124     0.7604 C.2     
   7 C7             3.8099    -0.5257     0.1157 C.2     
   8 C8             4.4410     0.6798    -0.1086 C.2     
   9 N9             3.5461     1.6633     0.0977 N.2     
  10 C10            5.8569     0.8604    -0.5064 C.ar    
  11 N11            4.3799    -1.7951     0.0110 N.3     
  12 C12            3.3602    -2.8433     0.1510 C.3     
  13 C13            3.8381    -4.1378    -0.5298 C.3     
  14 C14            6.8653     0.1675     0.1619 C.ar    
  15 C15            6.1855     1.7206    -1.5554 C.ar    
  16 C16            8.1824     0.3390    -0.2129 C.ar    
  17 C17            8.5038     1.1972    -1.2505 C.ar    
  18 C18            7.5065     1.8844    -1.9218 C.ar    
  19 Cl19          10.1629     1.4081    -1.7158 Cl      
  20 C20            3.1505    -3.1808     1.6416 C.3     
  21 C21            2.9180    -4.7121     1.6553 C.3     
  22 C22            3.9020    -5.2168     0.5708 C.3     
  23 Cl23           4.9359     2.5821    -2.3980 Cl      
  24 H24           -0.8687     1.3409     1.3247 H       
  25 H25           -0.5740    -1.1265     1.3495 H       
  26 H26            1.5696    -2.1065     0.7998 H       
  27 H27            1.0191     2.7857     0.7493 H       
  28 H28            4.8839    -1.8947    -0.8575 H       
  29 H29            2.4215    -2.5123    -0.2934 H       
  30 H30            3.1308    -4.4356    -1.3040 H       
  31 H31            4.8266    -3.9884    -0.9641 H       
  32 H32            6.6162    -0.5022     0.9718 H       
  33 H33            8.9641    -0.1972     0.3046 H       
  34 H34            7.7628     2.5527    -2.7305 H       
  35 H35            4.0385    -2.9245     2.2193 H       
  36 H36            2.2767    -2.6588     2.0316 H       
  37 H37            3.1682    -5.1320     2.6295 H       
  38 H38            1.8893    -4.9491     1.3839 H       
  39 H39            3.5767    -6.1807     0.1795 H       
  40 H40            4.9115    -5.2894     0.9757 H       
@<TRIPOS>BOND
   1    1    2 1
   2    1    6 2
   3    1   24 1
   4    2    3 2
   5    2   25 1
   6    3    4 1
   7    3   26 1
   8    4    5 1
   9    4    7 1
  10    5    6 1
  11    5    9 2
  12    6   27 1
  13    7    8 2
  14    7   11 1
  15    8    9 1
  16    8   10 1
  17   10   14 ar
  18   10   15 ar
  19   11   12 1
  20   11   28 1
  21   12   13 1
  22   12   20 1
  23   12   29 1
  24   13   22 1
  25   13   30 1
  26   13   31 1
  27   14   16 ar
  28   14   32 1
  29   15   23 1
  30   15   18 ar
  31   16   17 ar
  32   16   33 1
  33   17   18 ar
  34   17   19 1
  35   18   34 1
  36   20   21 1
  37   20   35 1
  38   20   36 1
  39   21   22 1
  40   21   37 1
  41   21   38 1
  42   22   39 1
  43   22   40 1

#	End of record

