#	Name: ASD01913283
#	Creating user name:	WinNT
#	Creation time:	15. 06. 2019 20:01

#	Modifying user name:	WinNT
#	Modification time:	15. 06. 2019 20:01

#	Program:	/corina/corina34_cracker 3.40 0067  02.08.2006

@<TRIPOS>MOLECULE
ASD01913283
  51   54    0    0    0
SMALL
NO_CHARGES


@<TRIPOS>ATOM
   1 C1             0.7303     1.1796    -1.0054 C.3     
   2 N2             0.3535    -0.1342    -0.4730 N.am    
   3 C3             1.3091    -0.7961     0.4308 C.3     
   4 C4             2.5768    -1.0985    -0.3666 C.3     
   5 C5             3.0153     0.1078    -1.1544 C.ar    
   6 C6             4.3348     0.1488    -1.5887 C.ar    
   7 C7             4.7992     1.2203    -2.3223 C.ar    
   8 C8             3.9462     2.2640    -2.6305 C.ar    
   9 C9             2.6369     2.2277    -2.1976 C.ar    
  10 C10            2.1693     1.1514    -1.4557 C.ar    
  11 C11           -0.8200    -0.7121    -0.7976 C.2     
  12 C12           -1.8127     0.0319    -1.5982 C.ar    
  13 C13           -2.6083    -0.6421    -2.5236 C.ar    
  14 C14           -3.5436     0.0652    -3.2758 C.ar    
  15 C15           -3.6777     1.4519    -3.0961 C.ar    
  16 C16           -2.8801     2.1121    -2.1725 C.ar    
  17 C17           -1.9589     1.4118    -1.4242 C.ar    
  18 O18           -1.0613    -1.8459    -0.4311 O.2     
  19 C19           -4.3648    -0.6187    -4.2290 C.1     
  20 C20           -5.0380    -1.1794    -5.0104 C.1     
  21 C21           -5.8592    -1.8633    -5.9636 C.ar    
  22 C22           -6.7951    -1.1463    -6.7143 C.ar    
  23 C23           -7.5801    -1.8218    -7.6304 C.ar    
  24 C24           -7.4071    -3.1927    -7.7694 C.ar    
  25 C25           -6.4626    -3.8406    -6.9948 C.ar    
  26 N26           -5.7222    -3.1752    -6.1322 N.ar    
  27 C27           -6.2733    -5.3282    -7.1441 C.3     
  28 O28           -4.5864     2.1454    -3.8256 O.3     
  29 C29           -4.6689     3.5526    -3.5910 C.3     
  30 H30            0.0898     1.4249    -1.8526 H       
  31 H31            0.6081     1.9344    -0.2285 H       
  32 H32            1.5466    -0.1352     1.2645 H       
  33 H33            0.8792    -1.7247     0.8063 H       
  34 H34            3.3724    -1.3865     0.3206 H       
  35 H35            2.3808    -1.9227    -1.0525 H       
  36 H36            5.0026    -0.6655    -1.3492 H       
  37 H37            5.8264     1.2443    -2.6549 H       
  38 H38            4.3036     3.1041    -3.2074 H       
  39 H39            1.9705     3.0431    -2.4373 H       
  40 H40           -2.4998    -1.7083    -2.6571 H       
  41 H41           -2.9848     3.1783    -2.0363 H       
  42 H42           -1.3447     1.9312    -0.7036 H       
  43 H43           -6.9037    -0.0801    -6.5805 H       
  44 H44           -8.3120    -1.2949    -8.2246 H       
  45 H45           -8.0056    -3.7482    -8.4763 H       
  46 H46           -5.5197    -5.5239    -7.9069 H       
  47 H47           -5.9462    -5.7500    -6.1937 H       
  48 H48           -7.2169    -5.7868    -7.4396 H       
  49 H49           -4.9316     3.7324    -2.5485 H       
  50 H50           -3.7056     4.0142    -3.8078 H       
  51 H51           -5.4326     3.9846    -4.2378 H       
@<TRIPOS>BOND
   1    1    2 1
   2    1   10 1
   3    1   30 1
   4    1   31 1
   5    2    3 1
   6    2   11 am
   7    3    4 1
   8    3   32 1
   9    3   33 1
  10    4    5 1
  11    4   34 1
  12    4   35 1
  13    5    6 ar
  14    5   10 ar
  15    6    7 ar
  16    6   36 1
  17    7    8 ar
  18    7   37 1
  19    8    9 ar
  20    8   38 1
  21    9   10 ar
  22    9   39 1
  23   11   12 1
  24   11   18 2
  25   12   13 ar
  26   12   17 ar
  27   13   14 ar
  28   13   40 1
  29   14   15 ar
  30   14   19 1
  31   15   16 ar
  32   15   28 1
  33   16   17 ar
  34   16   41 1
  35   17   42 1
  36   19   20 3
  37   20   21 1
  38   21   22 ar
  39   21   26 ar
  40   22   23 ar
  41   22   43 1
  42   23   24 ar
  43   23   44 1
  44   24   25 ar
  45   24   45 1
  46   25   26 ar
  47   25   27 1
  48   27   46 1
  49   27   47 1
  50   27   48 1
  51   28   29 1
  52   29   49 1
  53   29   50 1
  54   29   51 1

#	End of record

