#	Name: ASD02030531
#	Creating user name:	WinNT
#	Creation time:	15. 06. 2019 20:15

#	Modifying user name:	WinNT
#	Modification time:	15. 06. 2019 20:15

#	Program:	/corina/corina34_cracker 3.40 0067  02.08.2006

@<TRIPOS>MOLECULE
ASD02030531
  68   73    0    0    0
SMALL
NO_CHARGES


@<TRIPOS>ATOM
   1 N1            -0.1341     1.5856    -0.8065 N.am    
   2 C2            -0.0597     0.1211    -0.7095 C.3     
   3 C3            -0.8006    -0.3244     0.5573 C.3     
   4 N4            -2.1208     0.3208     0.5806 N.am    
   5 C5            -2.1952     1.7853     0.4836 C.3     
   6 C6            -1.4540     2.2312    -0.7775 C.3     
   7 C7             0.9884     2.3238    -0.9145 C.2     
   8 C8             2.3125     1.6773    -0.7954 C.2     
   9 N9             3.4734     2.2945    -0.7474 N.2     
  10 N10            2.5425     0.3541    -0.7113 N.2     
  11 C11            3.8375     0.1895    -0.6186 C.2     
  12 N12            4.4065     1.4122    -0.6425 N.pl3   
  13 O13            0.9119     3.5212    -1.1097 O.2     
  14 C14           -3.2433    -0.4174     0.6886 C.2     
  15 C15           -3.1607    -1.8943     0.6817 C.ar    
  16 O16           -4.3234     0.1305     0.7917 O.2     
  17 C17           -1.2834     3.7516    -0.7624 C.3     
  18 C18           -2.2494     1.8126    -2.0157 C.3     
  19 C19            5.7804     1.6780    -0.5665 C.ar    
  20 C20            6.2383     2.9879    -0.6020 C.ar    
  21 C21            7.5942     3.2468    -0.5263 C.ar    
  22 C22            8.4940     2.2013    -0.4158 C.ar    
  23 C23            8.0398     0.8956    -0.3804 C.ar    
  24 C24            6.6860     0.6316    -0.4498 C.ar    
  25 N25           -2.0306    -2.4871     1.0796 N.ar    
  26 C26           -1.8860    -3.7928     1.1001 C.ar    
  27 C27           -2.9488    -4.6301     0.6913 C.ar    
  28 C28           -4.1624    -4.0339     0.2630 C.ar    
  29 C29           -4.2562    -2.6301     0.2691 C.ar    
  30 O30           -0.7161    -4.3374     1.5132 O.3     
  31 C31            0.3157    -3.4327     1.9119 C.3     
  32 Cl32           8.1685     4.8844    -0.5705 Cl      
  33 C33            1.5510    -4.2259     2.3428 C.3     
  34 C34           -2.8346    -6.0259     0.6978 C.ar    
  35 C35           -3.8894    -6.7897     0.2934 C.ar    
  36 C36           -5.0809    -6.2043    -0.1270 C.ar    
  37 C37           -5.2276    -4.8492    -0.1460 C.ar    
  38 C38            2.8114    -3.4337     2.6961 C.3     
  39 C39            1.9946    -4.1050     3.8021 C.3     
  40 H40           -0.5292    -0.3278    -1.5848 H       
  41 H41            0.9836    -0.1892    -0.6514 H       
  42 H42           -0.9229    -1.4075     0.5478 H       
  43 H43           -0.2318    -0.0258     1.4379 H       
  44 H44           -3.2385     2.0956     0.4255 H       
  45 H45           -1.7257     2.2342     1.3590 H       
  46 H46            4.3563    -0.7540    -0.5350 H       
  47 H47           -0.4867     4.0209    -0.0689 H       
  48 H48           -1.0265     4.0984    -1.7633 H       
  49 H49           -2.2154     4.2187    -0.4442 H       
  50 H50           -3.2340     2.2797    -1.9901 H       
  51 H51           -1.7193     2.1314    -2.9131 H       
  52 H52           -2.3618     0.7285    -2.0259 H       
  53 H53            5.5361     3.8039    -0.6889 H       
  54 H54            9.5529     2.4053    -0.3576 H       
  55 H55            8.7444     0.0816    -0.2945 H       
  56 H56            6.3323    -0.3885    -0.4217 H       
  57 H57           -5.1627    -2.1371    -0.0494 H       
  58 H58            0.5740    -2.7844     1.0746 H       
  59 H59           -0.0357    -2.8258     2.7463 H       
  60 H60            1.6837    -5.1913     1.8545 H       
  61 H61           -1.9167    -6.4944     1.0209 H       
  62 H62           -3.7991    -7.8659     0.2989 H       
  63 H63           -5.9006    -6.8329    -0.4422 H       
  64 H64           -6.1567    -4.4070    -0.4739 H       
  65 H65            3.7733    -3.8781     2.4405 H       
  66 H66            2.7605    -2.3475     2.6215 H       
  67 H67            1.4064    -3.4603     4.4552 H       
  68 H68            2.4192    -4.9910     4.2741 H       
@<TRIPOS>BOND
   1    1    2 1
   2    1    7 am
   3    1    6 1
   4    2    3 1
   5    2   40 1
   6    2   41 1
   7    3    4 1
   8    3   42 1
   9    3   43 1
  10    4    5 1
  11    4   14 am
  12    5    6 1
  13    5   44 1
  14    5   45 1
  15    6   17 1
  16    6   18 1
  17    7    8 1
  18    7   13 2
  19    8    9 2
  20    8   10 1
  21    9   12 1
  22   10   11 2
  23   11   12 1
  24   11   46 1
  25   12   19 1
  26   14   15 1
  27   14   16 2
  28   15   25 ar
  29   15   29 ar
  30   17   47 1
  31   17   48 1
  32   17   49 1
  33   18   50 1
  34   18   51 1
  35   18   52 1
  36   19   20 ar
  37   19   24 ar
  38   20   21 ar
  39   20   53 1
  40   21   22 ar
  41   21   32 1
  42   22   23 ar
  43   22   54 1
  44   23   24 ar
  45   23   55 1
  46   24   56 1
  47   25   26 ar
  48   26   27 ar
  49   26   30 1
  50   27   28 ar
  51   27   34 ar
  52   28   29 ar
  53   28   37 ar
  54   29   57 1
  55   30   31 1
  56   31   33 1
  57   31   58 1
  58   31   59 1
  59   33   38 1
  60   33   39 1
  61   33   60 1
  62   34   35 ar
  63   34   61 1
  64   35   36 ar
  65   35   62 1
  66   36   37 ar
  67   36   63 1
  68   37   64 1
  69   38   39 1
  70   38   65 1
  71   38   66 1
  72   39   67 1
  73   39   68 1

#	End of record

