#	Name: ASD00700005
#	Creating user name:	WinNT
#	Creation time:	15. 06. 2019 18:37

#	Modifying user name:	WinNT
#	Modification time:	15. 06. 2019 18:37

#	Program:	/corina/corina34_cracker 3.40 0067  02.08.2006

@<TRIPOS>MOLECULE
ASD00700005
  74   77    0    0    0
SMALL
NO_CHARGES


@<TRIPOS>ATOM
   1 C1            -0.0167     1.3795     0.0096 C.ar    
   2 C2             0.0021    -0.0041     0.0020 C.ar    
   3 C3             1.2061    -0.6867    -0.0127 C.ar    
   4 C4             2.3967     0.0087    -0.0204 C.ar    
   5 C5             2.3857     1.4065    -0.0133 C.ar    
   6 C6             1.1663     2.0887     0.0021 C.ar    
   7 N7             3.5621     2.1026    -0.0203 N.2     
   8 N8             3.5483     3.3924    -0.0137 N.2     
   9 C9             4.7246     4.0885    -0.0208 C.ar    
  10 C10            5.9441     3.4063    -0.0352 C.ar    
  11 C11            7.1271     4.1155    -0.0423 C.ar    
  12 C12            7.1083     5.4991    -0.0351 C.ar    
  13 C13            5.9043     6.1817    -0.0208 C.ar    
  14 C14            4.7136     5.4863    -0.0194 C.ar    
  15 C15            1.2158    -2.1936    -0.0199 C.3     
  16 N16            1.2056    -2.6768    -1.4072 N.4     
  17 C17            5.8946     7.6886    -0.0130 C.3     
  18 N18            5.8790     8.1853    -1.3954 N.4     
  19 C19            7.0753     7.7069    -2.1012 C.3     
  20 C20            4.6766     7.6915    -2.0797 C.3     
  21 C21            5.8696     9.6543    -1.3879 C.3     
  22 C22            1.2150    -4.1457    -1.4142 C.3     
  23 C23           -0.0035    -2.1916    -2.0858 C.3     
  24 C24            2.3952    -2.1761    -2.1087 C.3     
  25 C25            5.8537    10.1638    -2.8061 C.ar    
  26 C26            4.6492    10.3898    -3.4458 C.ar    
  27 C27            4.6346    10.8571    -4.7466 C.ar    
  28 C28            5.8243    11.0989    -5.4076 C.ar    
  29 C29            7.0287    10.8738    -4.7676 C.ar    
  30 C30            7.0434    10.4106    -3.4653 C.ar    
  31 C31            1.2046    -4.6413    -2.8373 C.ar    
  32 C32            2.3969    -4.8609    -3.5014 C.ar    
  33 C33            2.3874    -5.3155    -4.8069 C.ar    
  34 C34            1.1855    -5.5510    -5.4480 C.ar    
  35 C35           -0.0068    -5.3322    -4.7836 C.ar    
  36 C36            0.0028    -4.8818    -3.4767 C.ar    
  37 H37           -0.9600     1.9054     0.0170 H       
  38 H38           -0.9274    -0.5541     0.0080 H       
  39 H39            3.3355    -0.5252    -0.0316 H       
  40 H40            1.1501     3.1686     0.0074 H       
  41 H41            5.9602     2.3264    -0.0405 H       
  42 H42            8.0703     3.5896    -0.0531 H       
  43 H43            8.0377     6.0491    -0.0403 H       
  44 H44            3.7748     6.0202    -0.0086 H       
  45 H45            2.1129    -2.5536     0.4837 H       
  46 H46            0.3331    -2.5651     0.5006 H       
  47 H47            5.0070     8.0436     0.5106 H       
  48 H48            6.7868     8.0551     0.4947 H       
  49 H49            7.0823     6.6170    -2.1067 H       
  50 H50            7.0637     8.0755    -3.1269 H       
  51 H51            7.9675     8.0734    -1.5935 H       
  52 H52            3.7890     8.0464    -1.5560 H       
  53 H53            4.6650     8.0600    -3.1054 H       
  54 H54            4.6836     6.6015    -2.0853 H       
  55 H55            4.9820    10.0092    -0.8643 H       
  56 H56            6.7619    10.0207    -0.8802 H       
  57 H57            2.1122    -4.5057    -0.9106 H       
  58 H58            0.3323    -4.5172    -0.8936 H       
  59 H59           -0.0105    -1.1016    -2.0806 H       
  60 H60           -0.0110    -2.5501    -3.1152 H       
  61 H61           -0.8862    -2.5631    -1.5653 H       
  62 H62            3.2924    -2.5361    -1.6052 H       
  63 H63            2.3877    -2.5346    -3.1381 H       
  64 H64            2.3882    -1.0862    -2.1035 H       
  65 H65            3.7197    10.2009    -2.9293 H       
  66 H66            3.6936    11.0330    -5.2467 H       
  67 H67            5.8129    11.4634    -6.4242 H       
  68 H68            7.9583    11.0624    -5.2842 H       
  69 H69            7.9843    10.2347    -2.9652 H       
  70 H70            3.3359    -4.6770    -3.0005 H       
  71 H71            3.3189    -5.4864    -5.3260 H       
  72 H72            1.1781    -5.9054    -6.4681 H       
  73 H73           -0.9457    -5.5158    -5.2846 H       
  74 H74           -0.9287    -4.7109    -2.9576 H       
@<TRIPOS>BOND
   1    1    2 ar
   2    1    6 ar
   3    1   37 1
   4    2    3 ar
   5    2   38 1
   6    3    4 ar
   7    3   15 1
   8    4    5 ar
   9    4   39 1
  10    5    6 ar
  11    5    7 1
  12    6   40 1
  13    7    8 2
  14    8    9 1
  15    9   10 ar
  16    9   14 ar
  17   10   11 ar
  18   10   41 1
  19   11   12 ar
  20   11   42 1
  21   12   13 ar
  22   12   43 1
  23   13   14 ar
  24   13   17 1
  25   14   44 1
  26   15   16 1
  27   15   45 1
  28   15   46 1
  29   16   22 1
  30   16   23 1
  31   16   24 1
  32   17   18 1
  33   17   47 1
  34   17   48 1
  35   18   19 1
  36   18   20 1
  37   18   21 1
  38   19   49 1
  39   19   50 1
  40   19   51 1
  41   20   52 1
  42   20   53 1
  43   20   54 1
  44   21   25 1
  45   21   55 1
  46   21   56 1
  47   22   31 1
  48   22   57 1
  49   22   58 1
  50   23   59 1
  51   23   60 1
  52   23   61 1
  53   24   62 1
  54   24   63 1
  55   24   64 1
  56   25   26 ar
  57   25   30 ar
  58   26   27 ar
  59   26   65 1
  60   27   28 ar
  61   27   66 1
  62   28   29 ar
  63   28   67 1
  64   29   30 ar
  65   29   68 1
  66   30   69 1
  67   31   32 ar
  68   31   36 ar
  69   32   33 ar
  70   32   70 1
  71   33   34 ar
  72   33   71 1
  73   34   35 ar
  74   34   72 1
  75   35   36 ar
  76   35   73 1
  77   36   74 1

#	End of record

