#	Name: ASD02690035
#	Creating user name:	WinNT
#	Creation time:	15. 06. 2019 20:26

#	Modifying user name:	WinNT
#	Modification time:	15. 06. 2019 20:26

#	Program:	/corina/corina34_cracker 3.40 0067  02.08.2006

@<TRIPOS>MOLECULE
ASD02690035
  38   40    0    0    0
SMALL
NO_CHARGES


@<TRIPOS>ATOM
   1 C1             0.3156     1.7048    -0.3412 C.ar    
   2 C2             1.5666     2.2725    -0.4446 C.ar    
   3 C3             0.1249     0.2262    -0.1283 C.3     
   4 C4             2.8392     1.4790    -0.2829 C.3     
   5 C5             0.9895    -0.2734     1.0330 C.3     
   6 C6             2.6470     0.0244    -0.7096 C.3     
   7 N7             2.2529    -0.7543     0.4713 N.3     
   8 C8            -0.8156     2.5011    -0.4433 C.ar    
   9 C9            -0.6973     3.8603    -0.6796 C.ar    
  10 C10            0.5625     4.4254    -0.8173 C.ar    
  11 C11            1.6845     3.6338    -0.6981 C.ar    
  12 C12            3.9196     2.1022    -1.1287 C.ar    
  13 C13            5.0762     2.5729    -0.5359 C.ar    
  14 C14            6.0673     3.1446    -1.3117 C.ar    
  15 C15            5.9018     3.2452    -2.6804 C.ar    
  16 C16            4.7455     2.7737    -3.2734 C.ar    
  17 C17            3.7564     2.1980    -2.4981 C.ar    
  18 C18            3.3161    -0.7478     1.4850 C.3     
  19 O19           -1.8088     4.6364    -0.7765 O.3     
  20 H20           -0.9236     0.0284     0.0944 H       
  21 H21            0.4040    -0.3058    -1.0378 H       
  22 H22            3.1461     1.5063     0.7626 H       
  23 H23            1.1815     0.5432     1.7289 H       
  24 H24            0.4807    -1.0877     1.5489 H       
  25 H25            1.8656    -0.0361    -1.4671 H       
  26 H26            3.5812    -0.3668    -1.1126 H       
  27 H27           -1.7949     2.0579    -0.3381 H       
  28 H28            0.6636     5.4819    -1.0168 H       
  29 H29            2.6644     4.0755    -0.8028 H       
  30 H30            5.2055     2.4943     0.5335 H       
  31 H31            6.9706     3.5130    -0.8484 H       
  32 H32            6.6758     3.6925    -3.2865 H       
  33 H33            4.6161     2.8526    -4.3427 H       
  34 H34            2.8546     1.8263    -2.9618 H       
  35 H35            3.0888    -1.4853     2.2547 H       
  36 H36            4.2679    -0.9949     1.0148 H       
  37 H37            3.3805     0.2417     1.9376 H       
  38 H38           -2.1024     5.0098     0.0657 H       
@<TRIPOS>BOND
   1    1    3 1
   2    1    2 ar
   3    1    8 ar
   4    2    4 1
   5    2   11 ar
   6    3    5 1
   7    3   20 1
   8    3   21 1
   9    4    6 1
  10    4   12 1
  11    4   22 1
  12    5    7 1
  13    5   23 1
  14    5   24 1
  15    6    7 1
  16    6   25 1
  17    6   26 1
  18    7   18 1
  19    8    9 ar
  20    8   27 1
  21    9   10 ar
  22    9   19 1
  23   10   11 ar
  24   10   28 1
  25   11   29 1
  26   12   13 ar
  27   12   17 ar
  28   13   14 ar
  29   13   30 1
  30   14   15 ar
  31   14   31 1
  32   15   16 ar
  33   15   32 1
  34   16   17 ar
  35   16   33 1
  36   17   34 1
  37   18   35 1
  38   18   36 1
  39   18   37 1
  40   19   38 1

#	End of record

