#	Name: ASD04970001
#	Creating user name:	WinNT
#	Creation time:	15. 06. 2019 20:56

#	Modifying user name:	WinNT
#	Modification time:	15. 06. 2019 20:56

#	Program:	/corina/corina34_cracker 3.40 0067  02.08.2006

@<TRIPOS>MOLECULE
ASD04970001
  79   81    0    0    0
SMALL
NO_CHARGES


@<TRIPOS>ATOM
   1 O1            -4.9018    -2.8402     3.7717 O.2     
   2 O2             0.8852    -0.1376     1.6422 O.3     
   3 O3             2.8476    -4.4696     1.6422 O.3     
   4 N4           -11.1457   -10.9594    -2.9641 N.3     
   5 N5            -7.2644    -7.0710    -0.0983 N.pl3   
   6 N6            -3.5675    -1.4262     4.8456 N.am    
   7 N7            -2.8011    -2.7206     3.0604 N.am    
   8 N8            -5.7399    -5.6409     0.9164 N.ar    
   9 N9            -4.2402    -4.1936     1.9616 N.ar    
  10 N10           -5.0646    -6.9686    -0.8707 N.ar    
  11 C11          -10.8346    -9.9521    -1.9411 C.3     
  12 C12           -9.3666    -9.5384    -2.0626 C.3     
  13 C13           -9.0426    -8.4893    -0.9971 C.3     
  14 C14          -12.4692   -11.5534    -2.7328 C.3     
  15 C15          -11.0550   -10.3851    -4.3131 C.3     
  16 C16           -7.5746    -8.0755    -1.1185 C.3     
  17 C17           -4.6498    -1.0200     5.7455 C.3     
  18 C18          -12.3871   -12.5448    -1.5703 C.3     
  19 C19          -10.9911   -11.5134    -5.3445 C.3     
  20 C20           -5.1547    -2.2396     6.5190 C.3     
  21 C21           -4.1279     0.0283     6.7302 C.3     
  22 C22           -5.7971    -0.4243     4.9270 C.3     
  23 C23           -5.9898    -6.5441    -0.0126 C.ar    
  24 C24           -1.9839    -4.0477     1.2167 C.ar    
  25 C25           -3.0372    -3.6683     2.0751 C.ar    
  26 C26           -3.7968    -2.3469     3.8883 C.2     
  27 C27           -3.5061    -5.5381     0.1308 C.ar    
  28 C28           -4.5169    -5.1077     1.0302 C.ar    
  29 C29           -2.2155    -4.9942     0.2310 C.ar    
  30 C30           -0.6402    -3.4391     1.3678 C.ar    
  31 C31           -3.8324    -6.5030    -0.8377 C.ar    
  32 C32            0.4904    -4.2507     1.4352 C.ar    
  33 C33           -0.5048    -2.0540     1.4359 C.ar    
  34 C34            0.7522    -1.4884     1.5761 C.ar    
  35 C35            1.7444    -3.6787     1.5759 C.ar    
  36 C36            1.8752    -2.2996     1.6488 C.ar    
  37 C37            2.2103     0.3776     1.7868 C.3     
  38 C38            4.1086    -3.8133     1.7873 C.3     
  39 H39          -11.4713    -9.0792    -2.0853 H       
  40 H40          -11.0130   -10.3724    -0.9513 H       
  41 H41           -8.7300   -10.4113    -1.9184 H       
  42 H42           -9.1883    -9.1181    -3.0523 H       
  43 H43           -9.6793    -7.6163    -1.1412 H       
  44 H44           -9.2210    -8.9095    -0.0073 H       
  45 H45          -13.1831   -10.7664    -2.4894 H       
  46 H46          -12.7958   -12.0747    -3.6325 H       
  47 H47          -11.9321    -9.7670    -4.5047 H       
  48 H48          -10.1560    -9.7732    -4.3878 H       
  49 H49           -7.3963    -7.6552    -2.1083 H       
  50 H50           -6.9380    -8.9484    -0.9744 H       
  51 H51          -13.3845   -12.9210    -1.3426 H       
  52 H52          -11.7395   -13.3766    -1.8473 H       
  53 H53          -11.9790   -12.0430    -0.6930 H       
  54 H54          -10.8301   -11.0905    -6.3362 H       
  55 H55          -10.1687   -12.1849    -5.0980 H       
  56 H56          -11.9290   -12.0686    -5.3342 H       
  57 H57           -4.3373    -2.6639     7.1021 H       
  58 H58           -5.9599    -1.9374     7.1886 H       
  59 H59           -5.5265    -2.9864     5.8175 H       
  60 H60           -3.7682     0.8972     6.1790 H       
  61 H61           -4.9331     0.3306     7.3997 H       
  62 H62           -3.3105    -0.3960     7.3132 H       
  63 H63           -6.1689    -1.1712     4.2255 H       
  64 H64           -6.6023    -0.1221     5.5966 H       
  65 H65           -5.4374     0.4446     4.3759 H       
  66 H66           -7.9537    -6.7757     0.5170 H       
  67 H67           -2.6858    -1.0326     4.9386 H       
  68 H68           -1.9195    -2.3270     3.1535 H       
  69 H69           -1.4277    -5.3030    -0.4402 H       
  70 H70           -3.0900    -6.8550    -1.5386 H       
  71 H71            0.3892    -5.3244     1.3782 H       
  72 H72           -1.3787    -1.4219     1.3791 H       
  73 H73            2.8539    -1.8562     1.7581 H       
  74 H74            2.1745     1.4663     1.8267 H       
  75 H75            2.6505    -0.0054     2.7075 H       
  76 H76            2.8165     0.0648     0.9366 H       
  77 H77            4.9034    -4.5581     1.8273 H       
  78 H78            4.2735    -3.1512     0.9373 H       
  79 H79            4.1107    -3.2298     2.7080 H       
@<TRIPOS>BOND
   1    1   26 2
   2    2   34 1
   3    2   37 1
   4    3   35 1
   5    3   38 1
   6    4   11 1
   7    4   14 1
   8    4   15 1
   9    5   16 1
  10    5   23 1
  11    5   66 1
  12    6   17 1
  13    6   26 am
  14    6   67 1
  15    7   25 1
  16    7   26 am
  17    7   68 1
  18    8   23 ar
  19    8   28 ar
  20    9   25 ar
  21    9   28 ar
  22   10   23 ar
  23   10   31 ar
  24   11   12 1
  25   11   39 1
  26   11   40 1
  27   12   13 1
  28   12   41 1
  29   12   42 1
  30   13   16 1
  31   13   43 1
  32   13   44 1
  33   14   18 1
  34   14   45 1
  35   14   46 1
  36   15   19 1
  37   15   47 1
  38   15   48 1
  39   16   49 1
  40   16   50 1
  41   17   20 1
  42   17   21 1
  43   17   22 1
  44   18   51 1
  45   18   52 1
  46   18   53 1
  47   19   54 1
  48   19   55 1
  49   19   56 1
  50   20   57 1
  51   20   58 1
  52   20   59 1
  53   21   60 1
  54   21   61 1
  55   21   62 1
  56   22   63 1
  57   22   64 1
  58   22   65 1
  59   24   25 ar
  60   24   29 ar
  61   24   30 1
  62   27   28 ar
  63   27   29 ar
  64   27   31 ar
  65   29   69 1
  66   30   32 ar
  67   30   33 ar
  68   31   70 1
  69   32   35 ar
  70   32   71 1
  71   33   34 ar
  72   33   72 1
  73   34   36 ar
  74   35   36 ar
  75   36   73 1
  76   37   74 1
  77   37   75 1
  78   37   76 1
  79   38   77 1
  80   38   78 1
  81   38   79 1

#	End of record

