#	Name: ASD01900408
#	Creating user name:	WinNT
#	Creation time:	15. 06. 2019 19:51

#	Modifying user name:	WinNT
#	Modification time:	15. 06. 2019 19:51

#	Program:	/corina/corina34_cracker 3.40 0067  02.08.2006

@<TRIPOS>MOLECULE
ASD01900408
  23   25    0    0    0
SMALL
NO_CHARGES


@<TRIPOS>ATOM
   1 S1            -0.0400     1.7030    -0.3107 S.3     
   2 C2            -0.0018    -0.0479    -0.1473 C.2     
   3 N3             1.2100    -0.4602    -0.0931 N.2     
   4 C4             2.1917     0.4614    -0.1659 C.2     
   5 C5             1.7202     1.7511    -0.2921 C.2     
   6 N6             3.9572     1.8072    -0.2674 N.2     
   7 N7             2.7998     2.5875    -0.3554 N.pl3   
   8 C8             3.6193     0.5514    -0.1556 C.2     
   9 N9             4.5047    -0.5258    -0.0439 N.pl3   
  10 C10            5.8817    -0.3139    -0.1615 C.ar    
  11 C11            6.7728    -1.1470     0.5030 C.ar    
  12 C12            8.1333    -0.9355     0.3853 C.ar    
  13 C13            8.6083     0.1072    -0.3947 C.ar    
  14 C14            7.7214     0.9384    -1.0569 C.ar    
  15 C15            6.3607     0.7263    -0.9472 C.ar    
  16 F16            9.9387     0.3129    -0.5084 F       
  17 Cl17           9.2481    -1.9759     1.2151 Cl      
  18 H18           -0.8737    -0.6834    -0.0993 H       
  19 H19            2.7685     3.5528    -0.4458 H       
  20 H20            4.1634    -1.4197     0.1151 H       
  21 H21            6.4027    -1.9591     1.1113 H       
  22 H22            8.0936     1.7507    -1.6635 H       
  23 H23            5.6695     1.3721    -1.4685 H       
@<TRIPOS>BOND
   1    1    2 1
   2    1    5 1
   3    2    3 2
   4    2   18 1
   5    3    4 1
   6    4    5 2
   7    4    8 1
   8    5    7 1
   9    6    7 1
  10    6    8 2
  11    7   19 1
  12    8    9 1
  13    9   10 1
  14    9   20 1
  15   10   11 ar
  16   10   15 ar
  17   11   12 ar
  18   11   21 1
  19   12   13 ar
  20   12   17 1
  21   13   14 ar
  22   13   16 1
  23   14   15 ar
  24   14   22 1
  25   15   23 1

#	End of record

