#	Name: ASD01813611
#	Creating user name:	WinNT
#	Creation time:	15. 06. 2019 19:30

#	Modifying user name:	WinNT
#	Modification time:	15. 06. 2019 19:30

#	Program:	/corina/corina34_cracker 3.40 0067  02.08.2006

@<TRIPOS>MOLECULE
ASD01813611
  42   45    0    0    0
SMALL
NO_CHARGES


@<TRIPOS>ATOM
   1 C1            -0.0231     1.3669    -0.0295 C.ar    
   2 C2            -0.0021    -0.0193    -0.0418 C.ar    
   3 C3             1.1946    -0.7068    -0.0406 C.ar    
   4 C4             2.3999    -0.0074    -0.0272 C.ar    
   5 C5             2.3771     1.3977    -0.0152 C.ar    
   6 C6             1.1584     2.0809    -0.0162 C.ar    
   7 N7             3.6020    -0.6833    -0.0248 N.pl3   
   8 C8             4.7858    -0.0577    -0.0112 C.2     
   9 C9             4.8901     1.3186     0.0018 C.2     
  10 C10            3.6586     2.1252    -0.0012 C.2     
  11 O11            3.6973     3.3432     0.0095 O.2     
  12 C12            6.2084     1.9678     0.0175 C.2     
  13 O13            6.2972     3.3129     0.0302 O.3     
  14 O14            7.2188     1.2918     0.0191 O.2     
  15 C15            3.5830    -2.1481    -0.0371 C.3     
  16 C16            3.4399    -2.6367    -1.4555 C.ar    
  17 N17            2.2400    -2.7391    -1.9896 N.ar    
  18 C18            2.0668    -3.1641    -3.2346 C.ar    
  19 C19            3.1612    -3.5184    -4.0204 C.ar    
  20 C20            4.4338    -3.4206    -3.4845 C.ar    
  21 C21            4.5703    -2.9662    -2.1806 C.ar    
  22 F22            1.1975    -2.0577    -0.0518 F       
  23 F23            1.1362     3.4316    -0.0050 F       
  24 C24            0.6967    -3.2633    -3.7940 C.ar    
  25 C25           -0.3121    -3.9173    -3.0868 C.ar    
  26 N26           -1.5302    -4.0053    -3.5836 N.ar    
  27 C27           -1.8431    -3.4856    -4.7549 C.ar    
  28 C28           -0.8983    -2.8221    -5.5163 C.ar    
  29 C29            0.3940    -2.6980    -5.0356 C.ar    
  30 Cl30           0.0393    -4.6220    -1.5397 Cl      
  31 H31           -0.9677     1.8904    -0.0348 H       
  32 H32           -0.9326    -0.5673    -0.0522 H       
  33 H33            5.6891    -0.6497    -0.0101 H       
  34 H34            7.1858     3.6941     0.0403 H       
  35 H35            4.5134    -2.5271     0.3857 H       
  36 H36            2.7418    -2.5055     0.5569 H       
  37 H37            3.0187    -3.8649    -5.0333 H       
  38 H38            5.3013    -3.6885    -4.0695 H       
  39 H39            5.5496    -2.8782    -1.7337 H       
  40 H40           -2.8532    -3.5800    -5.1254 H       
  41 H41           -1.1669    -2.4016    -6.4741 H       
  42 H42            1.1512    -2.1845    -5.6095 H       
@<TRIPOS>BOND
   1    1    2 ar
   2    1    6 ar
   3    1   31 1
   4    2    3 ar
   5    2   32 1
   6    3    4 ar
   7    3   22 1
   8    4    5 ar
   9    4    7 1
  10    5    6 ar
  11    5   10 1
  12    6   23 1
  13    7    8 1
  14    7   15 1
  15    8    9 2
  16    8   33 1
  17    9   10 1
  18    9   12 1
  19   10   11 2
  20   12   13 1
  21   12   14 2
  22   13   34 1
  23   15   16 1
  24   15   35 1
  25   15   36 1
  26   16   17 ar
  27   16   21 ar
  28   17   18 ar
  29   18   19 ar
  30   18   24 1
  31   19   20 ar
  32   19   37 1
  33   20   21 ar
  34   20   38 1
  35   21   39 1
  36   24   25 ar
  37   24   29 ar
  38   25   26 ar
  39   25   30 1
  40   26   27 ar
  41   27   28 ar
  42   27   40 1
  43   28   29 ar
  44   28   41 1
  45   29   42 1

#	End of record

