#	Name: ASD02500742
#	Creating user name:	WinNT
#	Creation time:	15. 06. 2019 20:23

#	Modifying user name:	WinNT
#	Modification time:	15. 06. 2019 20:23

#	Program:	/corina/corina34_cracker 3.40 0067  02.08.2006

@<TRIPOS>MOLECULE
ASD02500742
  52   55    0    0    0
SMALL
NO_CHARGES


@<TRIPOS>ATOM
   1 N1            -0.0179     1.4654     0.0101 N.am    
   2 C2             0.0021    -0.0041     0.0020 C.3     
   3 C3             0.8261    -0.4764    -1.2022 C.3     
   4 N4             2.1040     0.2493    -1.2105 N.am    
   5 C5             2.0841     1.7188    -1.2024 C.3     
   6 C6             1.2601     2.1912     0.0018 C.3     
   7 S7             3.5407    -0.5740    -1.2281 S.o2    
   8 O8             4.5153     0.3081    -0.6883 O.2     
   9 O9             3.2726    -1.8605    -0.6876 O.2     
  10 C10            3.9775    -0.8248    -2.9166 C.ar    
  11 C11            4.7442     0.1164    -3.5783 C.ar    
  12 C12            5.0880    -0.0779    -4.9021 C.ar    
  13 C13            4.6632    -1.2187    -5.5676 C.ar    
  14 C14            3.8939    -2.1616    -4.9014 C.ar    
  15 C15            3.5576    -1.9653    -3.5760 C.ar    
  16 O16            4.9997    -1.4119    -6.8700 O.3     
  17 C17            4.5274    -2.6090    -7.4913 C.3     
  18 S18           -1.4546     2.2888     0.0214 S.o2    
  19 O19           -1.1840     3.5755    -0.5173 O.2     
  20 O20           -2.4267     1.4070    -0.5232 O.2     
  21 O21           -2.9591     3.1084     5.6604 O.3     
  22 C22           -2.6024     2.9304     4.3590 C.ar    
  23 C23           -1.8259     3.8756     3.6985 C.ar    
  24 O24           -1.4003     4.9983     4.3395 O.3     
  25 C25           -2.0797     5.3437     5.5516 C.3     
  26 C26           -2.2116     4.0755     6.4060 C.3     
  27 C27           -1.4776     3.6762     2.3712 C.ar    
  28 C28           -1.8991     2.5390     1.7080 C.ar    
  29 C29           -2.6690     1.5981     2.3653 C.ar    
  30 C30           -3.0212     1.7916     3.6880 C.ar    
  31 H31            0.4576    -0.3688     0.9227 H       
  32 H32           -1.0165    -0.3833    -0.0803 H       
  33 H33            1.0139    -1.5469    -1.1197 H       
  34 H34            0.2810    -0.2679    -2.1228 H       
  35 H35            3.1027     2.0980    -1.1201 H       
  36 H36            1.6286     2.0836    -2.1231 H       
  37 H37            1.0723     3.2617    -0.0807 H       
  38 H38            1.8051     1.9827     0.9224 H       
  39 H39            5.0744     1.0045    -3.0599 H       
  40 H40            5.6867     0.6578    -5.4186 H       
  41 H41            3.5620    -3.0504    -5.4173 H       
  42 H42            2.9628    -2.7013    -3.0556 H       
  43 H43            4.8660    -2.6387    -8.5270 H       
  44 H44            4.9182    -3.4745    -6.9564 H       
  45 H45            3.4379    -2.6268    -7.4646 H       
  46 H46           -1.5049     6.0943     6.0941 H       
  47 H47           -3.0700     5.7353     5.3192 H       
  48 H48           -2.7350     4.3096     7.3330 H       
  49 H49           -1.2214     3.6799     6.6322 H       
  50 H50           -0.8763     4.4101     1.8552 H       
  51 H51           -2.9964     0.7103     1.8447 H       
  52 H52           -3.6229     1.0548     4.1994 H       
@<TRIPOS>BOND
   1    1    2 1
   2    1    6 1
   3    1   18 am
   4    2    3 1
   5    2   31 1
   6    2   32 1
   7    3    4 1
   8    3   33 1
   9    3   34 1
  10    4    5 1
  11    4    7 am
  12    5    6 1
  13    5   35 1
  14    5   36 1
  15    6   37 1
  16    6   38 1
  17    7    8 2
  18    7    9 2
  19    7   10 1
  20   10   11 ar
  21   10   15 ar
  22   11   12 ar
  23   11   39 1
  24   12   13 ar
  25   12   40 1
  26   13   14 ar
  27   13   16 1
  28   14   15 ar
  29   14   41 1
  30   15   42 1
  31   16   17 1
  32   17   43 1
  33   17   44 1
  34   17   45 1
  35   18   19 2
  36   18   20 2
  37   18   28 1
  38   21   22 1
  39   21   26 1
  40   22   23 ar
  41   22   30 ar
  42   23   24 1
  43   23   27 ar
  44   24   25 1
  45   25   26 1
  46   25   46 1
  47   25   47 1
  48   26   48 1
  49   26   49 1
  50   27   28 ar
  51   27   50 1
  52   28   29 ar
  53   29   30 ar
  54   29   51 1
  55   30   52 1

#	End of record

