#	Name: ASD01140623
#	Creating user name:	WinNT
#	Creation time:	15. 06. 2019 19:01

#	Modifying user name:	WinNT
#	Modification time:	15. 06. 2019 19:01

#	Program:	/corina/corina34_cracker 3.40 0067  02.08.2006

@<TRIPOS>MOLECULE
ASD01140623
  34   36    0    0    0
SMALL
NO_CHARGES


@<TRIPOS>ATOM
   1 Cl1           -7.7029    -3.4115     4.0479 Cl      
   2 O2            -0.0173     1.4248     0.0099 O.3     
   3 O3            -4.6745     0.8946     3.7741 O.2     
   4 N4            -3.3521    -1.2676     0.6733 N.pl3   
   5 N5            -2.6789     0.3172     3.1584 N.am    
   6 N6            -2.1636    -0.7939    -1.0679 N.2     
   7 C7            -2.1429    -0.8046     1.1040 C.2     
   8 C8            -1.7368    -0.6246     2.5444 C.3     
   9 C9            -4.3921    -1.7171     1.4876 C.ar    
  10 C10           -1.4117    -0.5257     0.0127 C.2     
  11 C11           -4.6825    -1.1273     2.7194 C.ar    
  12 C12           -3.9850     0.0557     3.2273 C.2     
  13 C13           -3.3340    -1.2300    -0.6840 C.2     
  14 C14            0.0021    -0.0041     0.0020 C.3     
  15 C15           -5.1501    -2.7967     1.0416 C.ar    
  16 C16           -2.1726     1.5765     3.7098 C.3     
  17 C17           -5.7086    -1.6734     3.5087 C.ar    
  18 C18           -6.1658    -3.3086     1.8203 C.ar    
  19 C19           -6.4380    -2.7502     3.0597 C.ar    
  20 C20            1.2801     2.0237     0.0007 C.3     
  21 H21           -0.7253    -0.2217     2.5956 H       
  22 H22           -1.7806    -1.5822     3.0632 H       
  23 H23           -4.1479    -1.5129    -1.3351 H       
  24 H24            0.5123    -0.3556    -0.8948 H       
  25 H25            0.5293    -0.3651     0.8851 H       
  26 H26           -4.9403    -3.2367     0.0779 H       
  27 H27           -2.1861     2.3436     2.9356 H       
  28 H28           -2.8039     1.8887     4.5418 H       
  29 H29           -1.1511     1.4341     4.0624 H       
  30 H30           -5.9263    -1.2448     4.4758 H       
  31 H31           -6.7497    -4.1448     1.4648 H       
  32 H32            1.1793     3.1090     0.0075 H       
  33 H33            1.8338     1.7047     0.8837 H       
  34 H34            1.8168     1.7143    -0.8961 H       
@<TRIPOS>BOND
   1    1   19 1
   2    2   14 1
   3    2   20 1
   4    3   12 2
   5    4    7 1
   6    4    9 1
   7    4   13 1
   8    5    8 1
   9    5   12 am
  10    5   16 1
  11    6   10 1
  12    6   13 2
  13    7    8 1
  14    7   10 2
  15    8   21 1
  16    8   22 1
  17    9   11 ar
  18    9   15 ar
  19   10   14 1
  20   11   12 1
  21   11   17 ar
  22   13   23 1
  23   14   24 1
  24   14   25 1
  25   15   18 ar
  26   15   26 1
  27   16   27 1
  28   16   28 1
  29   16   29 1
  30   17   19 ar
  31   17   30 1
  32   18   19 ar
  33   18   31 1
  34   20   32 1
  35   20   33 1
  36   20   34 1

#	End of record

