#	Name: ASD03430493
#	Creating user name:	WinNT
#	Creation time:	15. 06. 2019 20:41

#	Modifying user name:	WinNT
#	Modification time:	15. 06. 2019 20:41

#	Program:	/corina/corina34_cracker 3.40 0067  02.08.2006

@<TRIPOS>MOLECULE
ASD03430493
  52   56    0    0    0
SMALL
NO_CHARGES


@<TRIPOS>ATOM
   1 N1            -0.0161     1.3395     0.0094 N.am    
   2 C2             0.0021    -0.0041     0.0020 C.2     
   3 C3             1.4548    -0.4298    -0.0141 C.3     
   4 C4             2.2197     0.8737    -0.0144 C.ar    
   5 C5             3.5641     1.1705    -0.0263 C.ar    
   6 C6             3.9795     2.4906    -0.0239 C.ar    
   7 C7             3.0415     3.5068    -0.0095 C.ar    
   8 C8             1.6940     3.2122     0.0024 C.ar    
   9 C9             1.2680     1.8853     0.0001 C.ar    
  10 O10           -0.9637    -0.7377     0.0076 O.2     
  11 C11           -1.2434     2.1395     0.0197 C.3     
  12 C12           -1.6570     2.4066     1.4440 C.2     
  13 C13           -1.2728     3.4557     2.1719 C.2     
  14 C14           -1.7814     3.4906     3.4594 C.2     
  15 C15           -2.5793     2.4682     3.7761 C.2     
  16 S16           -2.7261     1.3860     2.3974 S.3     
  17 Cl17          -3.3586     2.2449     5.3112 Cl      
  18 C18            1.7830    -1.2343     1.2172 C.ar    
  19 C19            2.2675    -2.5281     1.0917 C.ar    
  20 C20            2.5700    -3.2682     2.2247 C.ar    
  21 C21            2.3891    -2.7169     3.4785 C.ar    
  22 C22            1.9051    -1.4234     3.6040 C.ar    
  23 C23            1.6067    -0.6815     2.4705 C.ar    
  24 O24            2.4455    -3.0707    -0.1424 O.3     
  25 O25            1.7267    -0.8809     4.8381 O.3     
  26 C26            2.0582    -1.7002     5.9610 C.3     
  27 C27            1.7975    -0.9371     7.2341 C.ar    
  28 C28            0.5577    -1.0084     7.8412 C.ar    
  29 C29            0.3186    -0.3084     9.0089 C.ar    
  30 C30            1.3195     0.4628     9.5698 C.ar    
  31 C31            2.5596     0.5334     8.9631 C.ar    
  32 C32            2.8000    -0.1701     7.7977 C.ar    
  33 H33            1.6751    -1.0021    -0.9153 H       
  34 H34            4.2935     0.3741    -0.0372 H       
  35 H35            5.0333     2.7266    -0.0329 H       
  36 H36            3.3659     4.5370    -0.0072 H       
  37 H37            0.9677     4.0114     0.0136 H       
  38 H38           -1.0644     3.0860    -0.4902 H       
  39 H39           -2.0364     1.5949    -0.4929 H       
  40 H40           -0.6144     4.2202     1.7866 H       
  41 H41           -1.5499     4.2842     4.1544 H       
  42 H42            2.9465    -4.2757     2.1270 H       
  43 H43            2.6243    -3.2934     4.3610 H       
  44 H44            1.2333     0.3272     2.5681 H       
  45 H45            3.3236    -2.9163    -0.5170 H       
  46 H46            1.4461    -2.6020     5.9462 H       
  47 H47            3.1117    -1.9754     5.9116 H       
  48 H48           -0.2242    -1.6109     7.4030 H       
  49 H49           -0.6503    -0.3636     9.4829 H       
  50 H50            1.1324     1.0103    10.4817 H       
  51 H51            3.3414     1.1362     9.4011 H       
  52 H52            3.7700    -0.1178     7.3258 H       
@<TRIPOS>BOND
   1    1    2 am
   2    1    9 1
   3    1   11 1
   4    2    3 1
   5    2   10 2
   6    3    4 1
   7    3   18 1
   8    3   33 1
   9    4    5 ar
  10    4    9 ar
  11    5    6 ar
  12    5   34 1
  13    6    7 ar
  14    6   35 1
  15    7    8 ar
  16    7   36 1
  17    8    9 ar
  18    8   37 1
  19   11   12 1
  20   11   38 1
  21   11   39 1
  22   12   13 2
  23   12   16 1
  24   13   14 1
  25   13   40 1
  26   14   15 2
  27   14   41 1
  28   15   16 1
  29   15   17 1
  30   18   19 ar
  31   18   23 ar
  32   19   20 ar
  33   19   24 1
  34   20   21 ar
  35   20   42 1
  36   21   22 ar
  37   21   43 1
  38   22   23 ar
  39   22   25 1
  40   23   44 1
  41   24   45 1
  42   25   26 1
  43   26   27 1
  44   26   46 1
  45   26   47 1
  46   27   28 ar
  47   27   32 ar
  48   28   29 ar
  49   28   48 1
  50   29   30 ar
  51   29   49 1
  52   30   31 ar
  53   30   50 1
  54   31   32 ar
  55   31   51 1
  56   32   52 1

#	End of record

