#	Name: ASD01010015
#	Creating user name:	WinNT
#	Creation time:	15. 06. 2019 18:56

#	Modifying user name:	WinNT
#	Modification time:	15. 06. 2019 18:56

#	Program:	/corina/corina34_cracker 3.40 0067  02.08.2006

@<TRIPOS>MOLECULE
ASD01010015
  29   30    0    0    0
SMALL
NO_CHARGES


@<TRIPOS>ATOM
   1 C1            -0.0545     1.3378    -0.1584 C.ar    
   2 C2            -0.0176    -0.0399    -0.0190 C.ar    
   3 C3             1.1880    -0.7074    -0.0247 C.ar    
   4 C4             2.3795     0.0076    -0.1722 C.ar    
   5 C5             2.3375     1.4023    -0.3136 C.ar    
   6 C6             1.1152     2.0570    -0.3050 C.ar    
   7 C7             3.6725    -0.6996    -0.1787 C.2     
   8 O8             3.7082    -2.0402    -0.0421 O.3     
   9 C9             4.9197    -2.6395    -0.1615 C.ar    
  10 C10            5.3362    -3.1297    -1.3896 C.ar    
  11 C11            6.5696    -3.7396    -1.5097 C.ar    
  12 C12            7.3987    -3.8669    -0.4075 C.ar    
  13 C13            7.0009    -3.3854     0.8212 C.ar    
  14 C14            5.7586    -2.7608     0.9555 C.ar    
  15 O15            3.4873     2.1075    -0.4571 O.3     
  16 C16            5.3266    -2.2433     2.2669 C.2     
  17 O17            6.1310    -2.3723     3.3402 O.3     
  18 O18            4.2454    -1.7007     2.3797 O.2     
  19 O19            4.7064    -0.0742    -0.3073 O.2     
  20 H20           -1.0042     1.8521    -0.1570 H       
  21 H21           -0.9379    -0.5934     0.0951 H       
  22 H22            1.2119    -1.7816     0.0851 H       
  23 H23            1.0780     3.1309    -0.4135 H       
  24 H24            4.6951    -3.0348    -2.2536 H       
  25 H25            6.8894    -4.1197    -2.4686 H       
  26 H26            8.3610    -4.3460    -0.5113 H       
  27 H27            7.6505    -3.4872     1.6780 H       
  28 H28            3.7667     2.2215    -1.3757 H       
  29 H29            5.8046    -2.0176     4.1785 H       
@<TRIPOS>BOND
   1    1    2 ar
   2    1    6 ar
   3    1   20 1
   4    2    3 ar
   5    2   21 1
   6    3    4 ar
   7    3   22 1
   8    4    5 ar
   9    4    7 1
  10    5    6 ar
  11    5   15 1
  12    6   23 1
  13    7    8 1
  14    7   19 2
  15    8    9 1
  16    9   10 ar
  17    9   14 ar
  18   10   11 ar
  19   10   24 1
  20   11   12 ar
  21   11   25 1
  22   12   13 ar
  23   12   26 1
  24   13   14 ar
  25   13   27 1
  26   14   16 1
  27   15   28 1
  28   16   17 1
  29   16   18 2
  30   17   29 1

#	End of record

