#	Name: ASD06170056
#	Creating user name:	WinNT
#	Creation time:	15. 06. 2019 21:05

#	Modifying user name:	WinNT
#	Modification time:	15. 06. 2019 21:05

#	Program:	/corina/corina34_cracker 3.40 0067  02.08.2006

@<TRIPOS>MOLECULE
ASD06170056
  72   76    0    0    0
SMALL
NO_CHARGES


@<TRIPOS>ATOM
   1 N1             0.3959     1.9802    -1.3346 N.pl3   
   2 N2             0.2127     0.9251    -0.4360 N.am    
   3 C3             1.4243     0.4643    -0.0616 C.2     
   4 C4             2.4204     1.2831    -0.7709 C.2     
   5 C5             1.7111     2.1914    -1.5324 C.2     
   6 C6             3.8803     1.1592    -0.6856 C.2     
   7 O7             4.5930     1.9063    -1.3295 O.2     
   8 N8             4.4317     0.2180     0.1060 N.am    
   9 C9            -1.0200     0.4305     0.0022 C.ar    
  10 C10           -1.9980     0.0826    -0.9205 C.ar    
  11 C11           -3.2140    -0.4059    -0.4846 C.ar    
  12 C12           -3.4585    -0.5484     0.8690 C.ar    
  13 C13           -2.4870    -0.2025     1.7903 C.ar    
  14 C14           -1.2666     0.2808     1.3608 C.ar    
  15 O15            1.6492    -0.4488     0.7107 O.2     
  16 C16            2.3085     3.2413    -2.4334 C.3     
  17 C17            5.8112     0.0123     0.0880 C.ar    
  18 C18            6.6511     1.0224    -0.3674 C.ar    
  19 C19            8.0174     0.8079    -0.3810 C.ar    
  20 C20            8.5008    -0.4198     0.0652 C.ar    
  21 C21            7.6038    -1.3800     0.5051 C.ar    
  22 N22            6.3065    -1.1400     0.5097 N.ar    
  23 O23            9.8366    -0.6732     0.0685 O.3     
  24 N24           11.9375     0.1745     3.5149 N.ar    
  25 C25           10.6341     0.3255     3.4823 C.ar    
  26 C26            9.8934     0.0502     2.3400 C.ar    
  27 C27           10.5340    -0.3964     1.1975 C.ar    
  28 C28           11.9377    -0.5554     1.2439 C.ar    
  29 C29           12.6562    -1.0038     0.1260 C.ar    
  30 C30           14.0074    -1.1468     0.2021 C.ar    
  31 C31           14.6923    -0.8516     1.3843 C.ar    
  32 C32           14.0155    -0.4101     2.4987 C.ar    
  33 C33           12.6213    -0.2535     2.4470 C.ar    
  34 O34           16.0413    -1.0027     1.4343 O.3     
  35 C35           16.6868    -1.4646     0.2460 C.3     
  36 C36           -0.6829     2.7395    -1.9717 C.3     
  37 C37           -1.0517     3.9366    -1.0932 C.3     
  38 C38           -2.2597     4.6577    -1.6946 C.3     
  39 C39           -2.6284     5.8549    -0.8161 C.3     
  40 C40           -1.9132     5.1458    -3.1026 C.3     
  41 O41            0.0558     4.8372    -1.0260 O.3     
  42 H42            3.8692    -0.3164     0.6882 H       
  43 H43           -1.8080     0.1943    -1.9778 H       
  44 H44           -3.9750    -0.6766    -1.2016 H       
  45 H45           -4.4104    -0.9303     1.2074 H       
  46 H46           -2.6813    -0.3143     2.8468 H       
  47 H47           -0.5065     0.5462     2.0806 H       
  48 H48            2.4633     4.1601    -1.8677 H       
  49 H49            3.2641     2.8873    -2.8200 H       
  50 H50            1.6301     3.4360    -3.2640 H       
  51 H51            6.2418     1.9625    -0.7066 H       
  52 H52            8.6937     1.5743    -0.7297 H       
  53 H53            7.9713    -2.3344     0.8522 H       
  54 H54           10.1235     0.6731     4.3682 H       
  55 H55            8.8217     0.1839     2.3436 H       
  56 H56           12.1383    -1.2355    -0.7930 H       
  57 H57           14.5570    -1.4927    -0.6610 H       
  58 H58           14.5540    -0.1847     3.4074 H       
  59 H59           17.7599    -1.5411     0.4217 H       
  60 H60           16.2923    -2.4440    -0.0245 H       
  61 H61           16.5008    -0.7611    -0.5655 H       
  62 H62           -0.3509     3.0936    -2.9476 H       
  63 H63           -1.5550     2.0974    -2.0955 H       
  64 H64           -1.2985     3.5889    -0.0901 H       
  65 H65           -3.1044     3.9708    -1.7458 H       
  66 H66           -1.7837     6.5418    -0.7649 H       
  67 H67           -3.4890     6.3686    -1.2446 H       
  68 H68           -2.8752     5.5071     0.1870 H       
  69 H69           -2.7738     5.6595    -3.5311 H       
  70 H70           -1.0685     5.8328    -3.0514 H       
  71 H71           -1.6505     4.2930    -3.7285 H       
  72 H72            0.3307     5.1872    -1.8845 H       
@<TRIPOS>BOND
   1    1    2 1
   2    1    5 1
   3    1   36 1
   4    2    3 am
   5    2    9 1
   6    3    4 1
   7    3   15 2
   8    4    5 2
   9    4    6 1
  10    5   16 1
  11    6    7 2
  12    6    8 am
  13    8   17 1
  14    8   42 1
  15    9   10 ar
  16    9   14 ar
  17   10   11 ar
  18   10   43 1
  19   11   12 ar
  20   11   44 1
  21   12   13 ar
  22   12   45 1
  23   13   14 ar
  24   13   46 1
  25   14   47 1
  26   16   48 1
  27   16   49 1
  28   16   50 1
  29   17   18 ar
  30   17   22 ar
  31   18   19 ar
  32   18   51 1
  33   19   20 ar
  34   19   52 1
  35   20   21 ar
  36   20   23 1
  37   21   22 ar
  38   21   53 1
  39   23   27 1
  40   24   25 ar
  41   24   33 ar
  42   25   26 ar
  43   25   54 1
  44   26   27 ar
  45   26   55 1
  46   27   28 ar
  47   28   29 ar
  48   28   33 ar
  49   29   30 ar
  50   29   56 1
  51   30   31 ar
  52   30   57 1
  53   31   32 ar
  54   31   34 1
  55   32   33 ar
  56   32   58 1
  57   34   35 1
  58   35   59 1
  59   35   60 1
  60   35   61 1
  61   36   37 1
  62   36   62 1
  63   36   63 1
  64   37   38 1
  65   37   41 1
  66   37   64 1
  67   38   39 1
  68   38   40 1
  69   38   65 1
  70   39   66 1
  71   39   67 1
  72   39   68 1
  73   40   69 1
  74   40   70 1
  75   40   71 1
  76   41   72 1

#	End of record

