#	Name: ASD01884755
#	Creating user name:	WinNT
#	Creation time:	15. 06. 2019 19:48

#	Modifying user name:	WinNT
#	Modification time:	15. 06. 2019 19:48

#	Program:	/corina/corina34_cracker 3.40 0067  02.08.2006

@<TRIPOS>MOLECULE
ASD01884755
  38   40    0    0    0
SMALL
NO_CHARGES


@<TRIPOS>ATOM
   1 N1            -0.0925     1.7039    -0.0561 N.2     
   2 C2            -0.2178     0.3938    -0.0444 C.2     
   3 C3             0.9349    -0.4152    -0.0232 C.2     
   4 C4             2.1739     0.1951    -0.0152 C.2     
   5 N5             2.2391     1.5458    -0.0280 N.am    
   6 C6             1.1119     2.2799    -0.0482 C.2     
   7 O7             1.1919     3.4967    -0.0595 O.2     
   8 C8             3.5434     2.2128    -0.0199 C.3     
   9 C9             0.8204    -1.8950    -0.0092 C.ar    
  10 C10            3.9086     2.5846     1.3941 C.ar    
  11 C11            4.4622     1.6378     2.2371 C.ar    
  12 C12            4.7975     1.9793     3.5353 C.ar    
  13 C13            4.5789     3.2673     3.9893 C.ar    
  14 C14            4.0251     4.2136     3.1451 C.ar    
  15 C15            3.6957     3.8734     1.8468 C.ar    
  16 C16            0.2463    -2.5404     1.0842 C.ar    
  17 C17            0.1408    -3.9157     1.0942 C.ar    
  18 C18            0.6063    -4.6567     0.0168 C.ar    
  19 C19            1.1787    -4.0165    -1.0738 C.ar    
  20 C20            1.2817    -2.6411    -1.0919 C.ar    
  21 O21            0.5019    -6.0116     0.0298 O.3     
  22 C22            1.0011    -6.7118    -1.1115 C.3     
  23 Cl23           4.9987     3.6966     5.6182 Cl      
  24 Cl24           4.7356     0.0212     1.6665 Cl      
  25 H25           -1.1986    -0.0582    -0.0507 H       
  26 H26            3.0768    -0.3973     0.0013 H       
  27 H27            4.2985     1.5392    -0.4250 H       
  28 H28            3.4946     3.1138    -0.6314 H       
  29 H29            5.2293     1.2403     4.1939 H       
  30 H30            3.8541     5.2193     3.4996 H       
  31 H31            3.2638     4.6124     1.1881 H       
  32 H32           -0.1155    -1.9644     1.9232 H       
  33 H33           -0.3041    -4.4165     1.9414 H       
  34 H34            1.5401    -4.5956    -1.9107 H       
  35 H35            1.7271    -2.1436    -1.9407 H       
  36 H36            0.4638    -6.3852    -2.0018 H       
  37 H37            2.0639    -6.5011    -1.2308 H       
  38 H38            0.8565    -7.7832    -0.9724 H       
@<TRIPOS>BOND
   1    1    2 2
   2    1    6 1
   3    2    3 1
   4    2   25 1
   5    3    4 2
   6    3    9 1
   7    4    5 1
   8    4   26 1
   9    5    6 am
  10    5    8 1
  11    6    7 2
  12    8   10 1
  13    8   27 1
  14    8   28 1
  15    9   16 ar
  16    9   20 ar
  17   10   11 ar
  18   10   15 ar
  19   11   12 ar
  20   11   24 1
  21   12   13 ar
  22   12   29 1
  23   13   14 ar
  24   13   23 1
  25   14   15 ar
  26   14   30 1
  27   15   31 1
  28   16   17 ar
  29   16   32 1
  30   17   18 ar
  31   17   33 1
  32   18   19 ar
  33   18   21 1
  34   19   20 ar
  35   19   34 1
  36   20   35 1
  37   21   22 1
  38   22   36 1
  39   22   37 1
  40   22   38 1

#	End of record

