#	Name: ASD02198588
#	Creating user name:	WinNT
#	Creation time:	15. 06. 2019 20:19

#	Modifying user name:	WinNT
#	Modification time:	15. 06. 2019 20:19

#	Program:	/corina/corina34_cracker 3.40 0067  02.08.2006

@<TRIPOS>MOLECULE
ASD02198588
  47   50    0    0    0
SMALL
NO_CHARGES


@<TRIPOS>ATOM
   1 C1            -0.0438     1.5050    -0.1136 C.2     
   2 C2            -0.0745     0.1655     0.0992 C.2     
   3 N3             1.0696    -0.5370     0.2614 N.pl3   
   4 N4             2.2345    -0.0032     0.2273 N.2     
   5 C5             2.4070     1.2857     0.0289 C.2     
   6 C6             1.2216     2.1381    -0.1596 C.2     
   7 C7             0.9771    -1.9159     0.4778 C.ar    
   8 C8             1.5760    -2.4871     1.5933 C.ar    
   9 C9             1.4823    -3.8489     1.8041 C.ar    
  10 C10            0.7934    -4.6433     0.9063 C.ar    
  11 C11            0.1962    -4.0778    -0.2058 C.ar    
  12 C12            0.2811    -2.7163    -0.4196 C.ar    
  13 C13            3.7645     1.8669    -0.0038 C.2     
  14 N14            4.3071     2.6062    -1.0170 N.pl3   
  15 N15            5.6091     2.9571    -0.6391 N.2     
  16 C16            5.8524     2.4579     0.5465 C.2     
  17 C17            4.7200     1.7708     0.9840 C.2     
  18 C18            3.6746     2.9507    -2.2183 C.ar    
  19 C19            2.9077     2.0115    -2.8952 C.ar    
  20 O20            1.3256     3.3409    -0.3477 O.2     
  21 C21            3.8085     4.2339    -2.7321 C.ar    
  22 C22            3.1836     4.5705    -3.9169 C.ar    
  23 C23            2.4252     3.6312    -4.5914 C.ar    
  24 C24            2.2853     2.3543    -4.0795 C.ar    
  25 C25            2.3275    -1.6221     2.5721 C.3     
  26 C26            1.6824    -1.7376     3.9546 C.3     
  27 C27            3.7837    -2.0852     2.6485 C.3     
  28 H28           -0.9548     2.0693    -0.2480 H       
  29 H29           -1.0247    -0.3462     0.1399 H       
  30 H30            1.9480    -4.2938     2.6711 H       
  31 H31            0.7216    -5.7079     1.0735 H       
  32 H32           -0.3409    -4.7012    -0.9053 H       
  33 H33           -0.1854    -2.2754    -1.2881 H       
  34 H34            6.7757     2.5639     1.0966 H       
  35 H35            4.6137     1.2517     1.9251 H       
  36 H36            2.7983     1.0139    -2.4961 H       
  37 H37            4.4003     4.9680    -2.2055 H       
  38 H38            3.2870     5.5684    -4.3167 H       
  39 H39            1.9373     3.8970    -5.5175 H       
  40 H40            1.6927     1.6228    -4.6088 H       
  41 H41            2.2932    -0.5843     2.2407 H       
  42 H42            1.7167    -2.7755     4.2860 H       
  43 H43            2.2259    -1.1120     4.6626 H       
  44 H44            0.6449    -1.4077     3.9002 H       
  45 H45            3.8180    -3.1231     2.9799 H       
  46 H46            4.2433    -2.0030     1.6635 H       
  47 H47            4.3273    -1.4596     3.3565 H       
@<TRIPOS>BOND
   1    1    2 2
   2    1    6 1
   3    1   28 1
   4    2    3 1
   5    2   29 1
   6    3    4 1
   7    3    7 1
   8    4    5 2
   9    5    6 1
  10    5   13 1
  11    6   20 2
  12    7    8 ar
  13    7   12 ar
  14    8    9 ar
  15    8   25 1
  16    9   10 ar
  17    9   30 1
  18   10   11 ar
  19   10   31 1
  20   11   12 ar
  21   11   32 1
  22   12   33 1
  23   13   14 1
  24   13   17 2
  25   14   15 1
  26   14   18 1
  27   15   16 2
  28   16   17 1
  29   16   34 1
  30   17   35 1
  31   18   21 ar
  32   18   19 ar
  33   19   24 ar
  34   19   36 1
  35   21   22 ar
  36   21   37 1
  37   22   23 ar
  38   22   38 1
  39   23   24 ar
  40   23   39 1
  41   24   40 1
  42   25   26 1
  43   25   27 1
  44   25   41 1
  45   26   42 1
  46   26   43 1
  47   26   44 1
  48   27   45 1
  49   27   46 1
  50   27   47 1

#	End of record

