#	Name: ASD02508153
#	Creating user name:	WinNT
#	Creation time:	15. 06. 2019 20:23

#	Modifying user name:	WinNT
#	Modification time:	15. 06. 2019 20:23

#	Program:	/corina/corina34_cracker 3.40 0067  02.08.2006

@<TRIPOS>MOLECULE
ASD02508153
  37   39    0    0    0
SMALL
NO_CHARGES


@<TRIPOS>ATOM
   1 C1             0.4157     1.8169    -0.1992 C.ar    
   2 C2             0.2709     0.4473    -0.0427 C.ar    
   3 C3             1.6882     2.3760    -0.3133 C.ar    
   4 C4             2.8057     1.5571    -0.2691 C.ar    
   5 C5             2.6549     0.1932    -0.1125 C.ar    
   6 C6             1.3908    -0.3618    -0.0001 C.ar    
   7 N7            -0.4923     2.8721    -0.2833 N.am    
   8 C8             0.2186     4.0071    -0.4347 C.2     
   9 O9             1.5284     3.7149    -0.4543 O.3     
  10 S10            4.0770    -0.8458    -0.0572 S.o2    
  11 N11            4.1127    -1.5484     1.4419 N.am    
  12 C12            4.3511    -0.7645     2.5766 C.ar    
  13 O13           -0.2538     5.1225    -0.5415 O.2     
  14 C14           -1.9520     2.7661    -0.2195 C.3     
  15 O15            3.8437    -1.8951    -0.9866 O.2     
  16 O16            5.2056     0.0150    -0.1240 O.2     
  17 C17            5.0899    -1.2805     3.6395 C.ar    
  18 C18            3.8575     0.5298     2.6436 C.ar    
  19 C19            4.0949     1.3028     3.7663 C.ar    
  20 C20            4.8240     0.7874     4.8227 C.ar    
  21 C21            5.3234    -0.5010     4.7596 C.ar    
  22 Cl22           1.2127    -2.0774     0.1967 Cl      
  23 O23            5.5803    -2.5478     3.5768 O.3     
  24 C24            6.3285    -3.0104     4.7031 C.3     
  25 Cl25           3.4771     2.9230     3.8489 Cl      
  26 H26           -0.7142     0.0136     0.0461 H       
  27 H27            3.7933     1.9852    -0.3573 H       
  28 H28            3.9685    -2.5032     1.5336 H       
  29 H29           -2.2777     2.8525     0.8171 H       
  30 H30           -2.4005     3.5658    -0.8091 H       
  31 H31           -2.2641     1.8012    -0.6192 H       
  32 H32            3.2883     0.9343     1.8197 H       
  33 H33            5.0072     1.3939     5.6974 H       
  34 H34            5.8920    -0.9006     5.5863 H       
  35 H35            7.1961    -2.3676     4.8517 H       
  36 H36            5.6996    -2.9834     5.5929 H       
  37 H37            6.6604    -4.0330     4.5236 H       
@<TRIPOS>BOND
   1    1    2 ar
   2    1    3 ar
   3    1    7 1
   4    2    6 ar
   5    2   26 1
   6    3    4 ar
   7    3    9 1
   8    4    5 ar
   9    4   27 1
  10    5    6 ar
  11    5   10 1
  12    6   22 1
  13    7    8 am
  14    7   14 1
  15    8    9 1
  16    8   13 2
  17   10   11 am
  18   10   15 2
  19   10   16 2
  20   11   12 1
  21   11   28 1
  22   12   17 ar
  23   12   18 ar
  24   14   29 1
  25   14   30 1
  26   14   31 1
  27   17   23 1
  28   17   21 ar
  29   18   19 ar
  30   18   32 1
  31   19   20 ar
  32   19   25 1
  33   20   21 ar
  34   20   33 1
  35   21   34 1
  36   23   24 1
  37   24   35 1
  38   24   36 1
  39   24   37 1

#	End of record

