#	Name: ASD03090294
#	Creating user name:	WinNT
#	Creation time:	15. 06. 2019 20:28

#	Modifying user name:	WinNT
#	Modification time:	15. 06. 2019 20:28

#	Program:	/corina/corina34_cracker 3.40 0067  02.08.2006

@<TRIPOS>MOLECULE
ASD03090294
  51   53    0    0    0
SMALL
NO_CHARGES


@<TRIPOS>ATOM
   1 N1             0.1627     1.0136     2.0880 N.ar    
   2 C2             0.1948     0.3123     0.9726 C.ar    
   3 C3             1.3598    -0.3243     0.5671 C.ar    
   4 C4             2.5093    -0.2087     1.3675 C.ar    
   5 C5             2.4213     0.5474     2.5407 C.ar    
   6 C6             1.2207     1.1450     2.8650 C.ar    
   7 C7             3.7750    -0.8677     0.9806 C.2     
   8 N8             5.6883    -3.5583    -0.2270 N.pl3   
   9 C9             7.0687    -3.7660    -0.2901 C.ar    
  10 C10            7.9284    -2.6854    -0.4439 C.ar    
  11 C11            9.2932    -2.8910    -0.5062 C.ar    
  12 C12            9.8067    -4.1706    -0.4153 C.ar    
  13 C13            8.9526    -5.2541    -0.2615 C.ar    
  14 C14            7.5835    -5.0518    -0.1933 C.ar    
  15 N15            3.8999    -2.0953     0.5159 N.2     
  16 C16            5.1854    -2.3553     0.2723 C.2     
  17 N17            5.9018    -1.2979     0.5775 N.2     
  18 N18            5.0083    -0.3160     1.0353 N.pl3   
  19 C19            5.3462     1.0350     1.4899 C.3     
  20 C20            5.1883     2.0184     0.3284 C.3     
  21 C21            5.4197     3.4443     0.8323 C.3     
  22 O22            9.4593    -6.5119    -0.1732 O.3     
  23 O23            6.1440     1.7116    -0.6887 O.3     
  24 N24            1.3890    -1.0655    -0.6126 N.pl3   
  25 C25            0.1556    -1.2803    -1.3734 C.3     
  26 C26            0.4769    -2.0404    -2.6618 C.3     
  27 C27           10.8802    -6.6456    -0.2462 C.3     
  28 F28           11.4704    -5.9283     0.7999 F       
  29 F29           11.2276    -7.9966    -0.1395 F       
  30 F30           11.3336    -6.1428    -1.4704 F       
  31 H31           -0.6958     0.2318     0.3670 H       
  32 H32            3.2810     0.6614     3.1844 H       
  33 H33            1.1460     1.7302     3.7696 H       
  34 H34            5.0795    -4.2500    -0.5301 H       
  35 H35            7.5296    -1.6843    -0.5152 H       
  36 H36            9.9599    -2.0499    -0.6266 H       
  37 H37           10.8740    -4.3280    -0.4644 H       
  38 H38            6.9175    -5.8936    -0.0733 H       
  39 H39            4.6791     1.3225     2.3025 H       
  40 H40            6.3773     1.0523     1.8429 H       
  41 H41            4.1819     1.9370    -0.0823 H       
  42 H42            6.4261     3.5257     1.2430 H       
  43 H43            5.3072     4.1448     0.0048 H       
  44 H44            4.6907     3.6783     1.6081 H       
  45 H45            7.0633     1.7642    -0.3934 H       
  46 H46            2.2260    -1.4392    -0.9300 H       
  47 H47           -0.5447    -1.8617    -0.7736 H       
  48 H48           -0.2907    -0.3173    -1.6214 H       
  49 H49            1.2418    -1.5012    -3.2206 H       
  50 H50            0.8427    -3.0369    -2.4141 H       
  51 H51           -0.4247    -2.1246    -3.2684 H       
@<TRIPOS>BOND
   1    1    2 ar
   2    1    6 ar
   3    2    3 ar
   4    2   31 1
   5    3    4 ar
   6    3   24 1
   7    4    5 ar
   8    4    7 1
   9    5    6 ar
  10    5   32 1
  11    6   33 1
  12    7   15 2
  13    7   18 1
  14    8    9 1
  15    8   16 1
  16    8   34 1
  17    9   10 ar
  18    9   14 ar
  19   10   11 ar
  20   10   35 1
  21   11   12 ar
  22   11   36 1
  23   12   13 ar
  24   12   37 1
  25   13   14 ar
  26   13   22 1
  27   14   38 1
  28   15   16 1
  29   16   17 2
  30   17   18 1
  31   18   19 1
  32   19   20 1
  33   19   39 1
  34   19   40 1
  35   20   21 1
  36   20   23 1
  37   20   41 1
  38   21   42 1
  39   21   43 1
  40   21   44 1
  41   22   27 1
  42   23   45 1
  43   24   25 1
  44   24   46 1
  45   25   26 1
  46   25   47 1
  47   25   48 1
  48   26   49 1
  49   26   50 1
  50   26   51 1
  51   27   28 1
  52   27   29 1
  53   27   30 1

#	End of record

