#	Name: ASD01911745
#	Creating user name:	WinNT
#	Creation time:	15. 06. 2019 19:58

#	Modifying user name:	WinNT
#	Modification time:	15. 06. 2019 19:58

#	Program:	/corina/corina34_cracker 3.40 0067  02.08.2006

@<TRIPOS>MOLECULE
ASD01911745
  22   23    0    0    0
SMALL
NO_CHARGES


@<TRIPOS>ATOM
   1 C1            -0.0171     1.4068     0.0098 C.2     
   2 C2             0.0021    -0.0041     0.0020 C.2     
   3 C3            -1.0985    -0.8275     0.0081 C.2     
   4 S4             1.4414    -1.0211    -0.0249 S.3     
   5 C5             0.4241    -2.4588    -0.0173 C.2     
   6 N6            -0.8375    -2.1016    -0.0012 N.2     
   7 C7             0.9010    -3.8090    -0.0315 C.1     
   8 C8             1.2919    -4.9159    -0.0431 C.1     
   9 C9             1.7688    -6.2661    -0.0574 C.ar    
  10 C10            0.8630    -7.3314    -0.0495 C.ar    
  11 O11            1.0265     2.0284     0.0032 O.2     
  12 C12            1.3300    -8.6287    -0.0637 C.ar    
  13 C13            2.6912    -8.8779    -0.0854 C.ar    
  14 C14            3.5940    -7.8289    -0.0928 C.ar    
  15 C15            3.1425    -6.5260    -0.0851 C.ar    
  16 H16           -0.9596     1.9340     0.0171 H       
  17 H17           -2.1079    -0.4438     0.0201 H       
  18 H18           -0.1995    -7.1385    -0.0319 H       
  19 H19            0.6317    -9.4526    -0.0577 H       
  20 H20            3.0508    -9.8962    -0.0961 H       
  21 H21            4.6547    -8.0312    -0.1090 H       
  22 H22            3.8482    -5.7084    -0.0912 H       
@<TRIPOS>BOND
   1    1    2 1
   2    1   11 2
   3    1   16 1
   4    2    3 2
   5    2    4 1
   6    3    6 1
   7    3   17 1
   8    4    5 1
   9    5    6 2
  10    5    7 1
  11    7    8 3
  12    8    9 1
  13    9   10 ar
  14    9   15 ar
  15   10   12 ar
  16   10   18 1
  17   12   13 ar
  18   12   19 1
  19   13   14 ar
  20   13   20 1
  21   14   15 ar
  22   14   21 1
  23   15   22 1

#	End of record

