#	Name: ASD09610048
#	Creating user name:	WinNT
#	Creation time:	15. 06. 2019 21:22

#	Modifying user name:	WinNT
#	Modification time:	15. 06. 2019 21:22

#	Program:	/corina/corina34_cracker 3.40 0067  02.08.2006

@<TRIPOS>MOLECULE
ASD09610048
  33   35    0    0    0
SMALL
NO_CHARGES


@<TRIPOS>ATOM
   1 C1            -0.0169     1.3937     0.0097 C.ar    
   2 C2             0.0021    -0.0041     0.0020 C.ar    
   3 C3             1.2611    -0.6398    -0.0134 C.ar    
   4 C4             2.3961     0.1732    -0.0199 C.ar    
   5 N5             2.2630     1.4843    -0.0116 N.ar    
   6 N6             1.1192     2.0636     0.0025 N.ar    
   7 C7             3.7696    -0.4468    -0.0358 C.3     
   8 C8            -1.2542    -0.7889     0.0103 C.ar    
   9 C9            -1.8611    -1.1541    -1.1931 C.ar    
  10 C10           -3.0334    -1.8866    -1.1777 C.ar    
  11 C11           -3.6054    -2.2572     0.0257 C.ar    
  12 C12           -3.0101    -1.8986     1.2215 C.ar    
  13 C13           -1.8340    -1.1719     1.2214 C.ar    
  14 F14           -1.2504    -0.8281     2.3903 F       
  15 F15           -1.3042    -0.7921    -2.3695 F       
  16 C16            1.3750    -2.1175    -0.0220 C.ar    
  17 C17            1.9264    -2.7703    -1.1238 C.ar    
  18 C18            2.0306    -4.1461    -1.1264 C.ar    
  19 C19            1.5888    -4.8783    -0.0375 C.ar    
  20 C20            1.0405    -4.2350     1.0591 C.ar    
  21 C21            0.9366    -2.8593     1.0742 C.ar    
  22 Cl22           1.7222    -6.6092    -0.0475 Cl      
  23 Cl23          -1.5300     2.2446     0.0215 Cl      
  24 H24            4.0911    -0.5911    -1.0673 H       
  25 H25            4.4717     0.2123     0.4748 H       
  26 H26            3.7393    -1.4101     0.4734 H       
  27 H27           -3.5040    -2.1697    -2.1076 H       
  28 H28           -4.5215    -2.8291     0.0318 H       
  29 H29           -3.4627    -2.1908     2.1575 H       
  30 H30            2.2709    -2.2001    -1.9737 H       
  31 H31            2.4571    -4.6527    -1.9795 H       
  32 H32            0.6974    -4.8108     1.9059 H       
  33 H33            0.5128    -2.3582     1.9319 H       
@<TRIPOS>BOND
   1    1    2 ar
   2    1    6 ar
   3    1   23 1
   4    2    3 ar
   5    2    8 1
   6    3    4 ar
   7    3   16 1
   8    4    5 ar
   9    4    7 1
  10    5    6 ar
  11    7   24 1
  12    7   25 1
  13    7   26 1
  14    8    9 ar
  15    8   13 ar
  16    9   10 ar
  17    9   15 1
  18   10   11 ar
  19   10   27 1
  20   11   12 ar
  21   11   28 1
  22   12   13 ar
  23   12   29 1
  24   13   14 1
  25   16   17 ar
  26   16   21 ar
  27   17   18 ar
  28   17   30 1
  29   18   19 ar
  30   18   31 1
  31   19   20 ar
  32   19   22 1
  33   20   21 ar
  34   20   32 1
  35   21   33 1

#	End of record

