#	Name: ASD05062027
#	Creating user name:	WinNT
#	Creation time:	15. 06. 2019 20:56

#	Modifying user name:	WinNT
#	Modification time:	15. 06. 2019 20:56

#	Program:	/corina/corina34_cracker 3.40 0067  02.08.2006

@<TRIPOS>MOLECULE
ASD05062027
  28   30    0    0    0
SMALL
NO_CHARGES


@<TRIPOS>ATOM
   1 N1            -0.0165     1.3629     0.0095 N.pl3   
   2 C2             0.0021    -0.0041     0.0020 C.2     
   3 C3            -1.3186    -0.4133     0.0124 C.2     
   4 C4            -2.0745     0.7728     0.0260 C.2     
   5 N5            -1.2299     1.7828     0.0289 N.2     
   6 C6             1.1710     2.2208     0.0028 C.3     
   7 C7            -3.5557     0.8685     0.0399 C.ar    
   8 C8            -4.3283    -0.2856     0.1454 C.ar    
   9 C9            -5.7058    -0.1960     0.1577 C.ar    
  10 C10           -6.3246     1.0410     0.0653 C.ar    
  11 C11           -5.5559     2.1993    -0.0399 C.ar    
  12 C12           -4.1755     2.1135    -0.0468 C.ar    
  13 O13           -7.6440     1.3918     0.0551 O.3     
  14 C14           -7.6701     2.7997     0.3549 C.3     
  15 O15           -6.3947     3.2738    -0.1158 O.3     
  16 C16            1.1915    -0.8684    -0.0140 C.2     
  17 O17            1.0644    -2.0772    -0.0192 O.2     
  18 O18            2.4231    -0.3201    -0.0228 O.3     
  19 H19           -1.6904    -1.4273     0.0102 H       
  20 H20            1.4557     2.4391    -1.0265 H       
  21 H21            0.9493     3.1522     0.5238 H       
  22 H22            1.9916     1.7094     0.5061 H       
  23 H23           -3.8495    -1.2510     0.2172 H       
  24 H24           -6.3030    -1.0922     0.2393 H       
  25 H25           -3.5786     3.0100    -0.1279 H       
  26 H26           -8.4826     3.2904    -0.1810 H       
  27 H27           -7.7660     2.9609     1.4286 H       
  28 H28            3.1745    -0.9287    -0.0332 H       
@<TRIPOS>BOND
   1    1    2 1
   2    1    6 1
   3    1    5 1
   4    2    3 2
   5    2   16 1
   6    3    4 1
   7    3   19 1
   8    4    5 2
   9    4    7 1
  10    6   20 1
  11    6   21 1
  12    6   22 1
  13    7    8 ar
  14    7   12 ar
  15    8    9 ar
  16    8   23 1
  17    9   10 ar
  18    9   24 1
  19   10   11 ar
  20   10   13 1
  21   11   12 ar
  22   11   15 1
  23   12   25 1
  24   13   14 1
  25   14   15 1
  26   14   26 1
  27   14   27 1
  28   16   17 2
  29   16   18 1
  30   18   28 1

#	End of record

