#	Name: ASD01911693
#	Creating user name:	WinNT
#	Creation time:	15. 06. 2019 19:58

#	Modifying user name:	WinNT
#	Modification time:	15. 06. 2019 19:58

#	Program:	/corina/corina34_cracker 3.40 0067  02.08.2006

@<TRIPOS>MOLECULE
ASD01911693
  40   42    0    0    0
SMALL
NO_CHARGES


@<TRIPOS>ATOM
   1 N1            -0.0677     1.3531     0.0169 N.am    
   2 C2            -0.1135     0.0066     0.0522 C.2     
   3 C3            -1.4056    -0.6809     0.1186 C.2     
   4 C4            -1.6042    -2.0317     0.0203 C.2     
   5 S5            -2.9764     0.0853     0.3467 S.3     
   6 C6            -3.7543    -1.4934     0.2806 C.2     
   7 N7            -2.8447    -2.4202     0.1084 N.2     
   8 C8            -5.1618    -1.7279     0.4012 C.1     
   9 C9            -6.3158    -1.9201     0.5000 C.1     
  10 C10           -7.7233    -2.1545     0.6206 C.ar    
  11 C11           -8.2271    -3.4570     0.5521 C.ar    
  12 C12           -9.5836    -3.6748     0.6695 C.ar    
  13 C13          -10.4459    -2.6081     0.8543 C.ar    
  14 C14           -9.9548    -1.3160     0.9231 C.ar    
  15 C15           -8.6002    -1.0827     0.8132 C.ar    
  16 O16            0.9185    -0.6383     0.0290 O.2     
  17 C17            1.1553     2.1733     0.0865 C.3     
  18 C18            0.6816     3.5468     0.6242 C.3     
  19 C19           -0.6967     3.6955    -0.0726 C.3     
  20 C20           -1.2287     2.2471    -0.1038 C.3     
  21 C21           -1.9581     1.9889    -1.4237 C.3     
  22 C22            2.1644     1.5440     1.0491 C.3     
  23 H23           -0.7897    -2.7267    -0.1209 H       
  24 H24           -7.5555    -4.2904     0.4072 H       
  25 H25           -9.9743    -4.6803     0.6169 H       
  26 H26          -11.5074    -2.7849     0.9449 H       
  27 H27          -10.6339    -0.4887     1.0671 H       
  28 H28           -8.2185    -0.0738     0.8670 H       
  29 H29            1.5942     2.2849    -0.9049 H       
  30 H30            0.5710     3.5249     1.7083 H       
  31 H31            1.3618     4.3417     0.3184 H       
  32 H32           -1.3561     4.3386     0.5103 H       
  33 H33           -0.5773     4.0805    -1.0854 H       
  34 H34           -1.9056     2.0827     0.7346 H       
  35 H35           -1.3186     2.2834    -2.2558 H       
  36 H36           -2.1961     0.9284    -1.5059 H       
  37 H37           -2.8792     2.5711    -1.4497 H       
  38 H38            2.4259     0.5453     0.6995 H       
  39 H39            3.0618     2.1614     1.0894 H       
  40 H40            1.7245     1.4771     2.0441 H       
@<TRIPOS>BOND
   1    1    2 am
   2    1   17 1
   3    1   20 1
   4    2    3 1
   5    2   16 2
   6    3    4 2
   7    3    5 1
   8    4    7 1
   9    4   23 1
  10    5    6 1
  11    6    7 2
  12    6    8 1
  13    8    9 3
  14    9   10 1
  15   10   11 ar
  16   10   15 ar
  17   11   12 ar
  18   11   24 1
  19   12   13 ar
  20   12   25 1
  21   13   14 ar
  22   13   26 1
  23   14   15 ar
  24   14   27 1
  25   15   28 1
  26   17   18 1
  27   17   22 1
  28   17   29 1
  29   18   19 1
  30   18   30 1
  31   18   31 1
  32   19   20 1
  33   19   32 1
  34   19   33 1
  35   20   21 1
  36   20   34 1
  37   21   35 1
  38   21   36 1
  39   21   37 1
  40   22   38 1
  41   22   39 1
  42   22   40 1

#	End of record

